------- AERODYN v15 for OpenFAST INPUT FILE -----------------------------------------------
SWRT rotor aerodynamic parameters for FAST certification tests #15-#17.
======  General Options  ============================================================================
False         Echo               - Echo the input to "<rootname>.AD.ech"?  (flag)
"default"     DTAero             - Time interval for aerodynamic calculations {or "default"} (s)
          2   WakeMod            - Type of wake/induction model (switch) {0=none, 1=BEMT, 2=DBEMT, 3=OLAF} [WakeMod cannot be 2 or 3 when linearizing]
          2   AFAeroMod          - Type of blade airfoil aerodynamics model (switch) {1=steady model, 2=Beddoes-Leishman unsteady model} [AFAeroMod must be 1 when linearizing]
          0   TwrPotent          - Type tower influence on wind based on potential flow around the tower (switch) {0=none, 1=baseline potential flow, 2=potential flow with Bak correction}
          0   TwrShadow          - Calculate tower influence on wind based on downstream tower shadow (switch) {0=none, 1=Powles model, 2=Eames model}
False         TwrAero            - Calculate tower aerodynamic loads? (flag)
False         FrozenWake         - Assume frozen wake during linearization? (flag) [used only when WakeMod=1 and when linearizing]
False         CavitCheck         - Perform cavitation check? (flag) [AFAeroMod must be 1 when CavitCheck=true]
False         Buoyancy           - Include buoyancy effects? (flag)
False         CompAA             - Flag to compute AeroAcoustics calculation [used only when WakeMod = 1 or 2]
"unused"      AA_InputFile       - AeroAcoustics input file [used only when CompAA=true]
======  Environmental Conditions  ===================================================================
"default"     AirDens            - Air density (kg/m^3)
"default"     KinVisc            - Kinematic viscosity of working fluid (m^2/s)
"default"     SpdSound           - Speed of sound in working fluid (m/s)
"default"     Patm               - Atmospheric pressure (Pa) [used only when CavitCheck=True]
"default"     Pvap               - Vapour pressure of working fluid (Pa) [used only when CavitCheck=True]
======  Blade-Element/Momentum Theory Options  ====================================================== [unused when WakeMod=0 or 3]
          2   SkewMod            - Type of skewed-wake correction model (switch) {1=uncoupled, 2=Pitt/Peters, 3=coupled} [unused when WakeMod=0 or 3]
"default"     SkewModFactor      - Constant used in Pitt/Peters skewed wake model {or "default" is 15/32*pi} (-) [used only when SkewMod=2; unused when WakeMod=0 or 3]
True          TipLoss            - Use the Prandtl tip-loss model? (flag) [unused when WakeMod=0 or 3]
False         HubLoss            - Use the Prandtl hub-loss model? (flag) [unused when WakeMod=0 or 3]
True          TanInd             - Include tangential induction in BEMT calculations? (flag) [unused when WakeMod=0 or 3]
False         AIDrag             - Include the drag term in the axial-induction calculation? (flag) [unused when WakeMod=0 or 3]
False         TIDrag             - Include the drag term in the tangential-induction calculation? (flag) [unused when WakeMod=0,3 or TanInd=FALSE]
"Default"     IndToler           - Convergence tolerance for BEMT nonlinear solve residual equation {or "default"} (-) [unused when WakeMod=0 or 3]
        100   MaxIter            - Maximum number of iteration steps (-) [unused when WakeMod=0]
======  Dynamic Blade-Element/Momentum Theory Options  ============================================== [used only when WakeMod=2]
          1   DBEMT_Mod          - Type of dynamic BEMT (DBEMT) model {1=constant tau1, 2=time-dependent tau1, 3=constant tau1 with continuous formulation} (-) [used only when WakeMod=2]
          1   tau1_const         - Time constant for DBEMT (s) [used only when WakeMod=2 and DBEMT_Mod=1 or 3]
======  OLAF -- cOnvecting LAgrangian Filaments (Free Vortex Wake) Theory Options  ================== [used only when WakeMod=3]
"unused"      OLAFInputFileName  - Input file for OLAF [used only when WakeMod=3]
======  Beddoes-Leishman Unsteady Airfoil Aerodynamics Options  ===================================== [used only when AFAeroMod=2]
          3   UAMod              - Unsteady Aero Model Switch (switch) {2=B-L Gonzalez, 3=B-L Minnema/Pierce, 4=B-L HGM 4-states, 5=B-L 5 states, 6=Oye, 7=Boeing-Vertol} [used only when AFAeroMod=2]
True          FLookup            - Flag to indicate whether a lookup for f' will be calculated (TRUE) or whether best-fit exponential equations will be used (FALSE); if FALSE S1-S4 must be provided in airfoil input files (flag) [used only when AFAeroMod=2]
======  Airfoil Information =========================================================================
          1   AFTabMod           - Interpolation method for multiple airfoil tables {1=1D interpolation on AoA (first table only); 2=2D interpolation on AoA and Re; 3=2D interpolation on AoA and UserProp} (-)
          1   InCol_Alfa         - The column in the airfoil tables that contains the angle of attack (-)
          2   InCol_Cl           - The column in the airfoil tables that contains the lift coefficient (-)
          3   InCol_Cd           - The column in the airfoil tables that contains the drag coefficient (-)
          0   InCol_Cm           - The column in the airfoil tables that contains the pitching-moment coefficient; use zero if there is no Cm column (-)
          0   InCol_Cpmin        - The column in the airfoil tables that contains the Cpmin coefficient; use zero if there is no Cpmin column (-)
          4   NumAFfiles         - Number of airfoil files used (-)
"../SWRT/Airfoils/TailPlate.dat"    AFNames            - Airfoil file names (NumAFfiles lines) (quoted strings)
"../SWRT/Airfoils/SH3052Mod_AllRe_Hanley.dat"
"../SWRT/Airfoils/SH3052Mod_AllRe_Elem14_Hanley.dat"
"../SWRT/Airfoils/SH3052Mod_AllRe_Elem15_Hanley.dat"
======  Rotor/Blade Properties  =====================================================================
False         UseBlCm            - Include aerodynamic pitching moment in calculations?  (flag)
"../SWRT/SWRT_AeroDyn_blade.dat"    ADBlFile(1)        - Name of file containing distributed aerodynamic properties for Blade #1 (-)
"../SWRT/SWRT_AeroDyn_blade.dat"    ADBlFile(2)        - Name of file containing distributed aerodynamic properties for Blade #2 (-) [unused if NumBl < 2]
"../SWRT/SWRT_AeroDyn_blade.dat"    ADBlFile(3)        - Name of file containing distributed aerodynamic properties for Blade #3 (-) [unused if NumBl < 3]
======  Hub Properties ============================================================================== [used only when Buoyancy=True]
0.0   VolHub             - Hub volume (m^3)
0.0   HubCenBx           - Hub center of buoyancy x direction offset (m)
======  Nacelle Properties ========================================================================== [used only when Buoyancy=True]
0.0   VolNac             - Nacelle volume (m^3)
0,0,0 NacCenB            - Position of nacelle center of buoyancy from yaw bearing in nacelle coordinates (m)
======  Tail fin Aerodynamics ======================================================================== 
False         TFinAero           - Calculate tail fin aerodynamics model (flag)
"unused"      TFinFile           - Input file for tail fin aerodynamics [used only when TFinAero=True]
======  Tower Influence and Aerodynamics ============================================================ [used only when TwrPotent/=0, TwrShadow/=0, TwrAero=True, or Buoyancy=True]
          2   NumTwrNds         - Number of tower nodes used in the analysis  (-) [used only when TwrPotent/=0, TwrShadow/=0, TwrAero=True, or Buoyancy=True]
TwrElev        TwrDiam        TwrCd          TwrTI          TwrCb !TwrTI used only with TwrShadow=2, TwrCb used only with Buoyancy=True
(m)              (m)           (-)            (-)           (-)
0.0000000E+00  1.4220000E+00  0.0000000E+00  1.0000000E-01  0.0
3.4000000E+01  3.5550000E-01  0.0000000E+00  1.0000000E-01  0.0
======  Outputs  ====================================================================================
True          SumPrint            - Generate a summary file listing input options and interpolated properties to "<rootname>.AD.sum"?  (flag)
          0   NBlOuts             - Number of blade node outputs [0 - 9] (-)
          2,          8,         16    BlOutNd             - Blade nodes whose values will be output  (-)
          0   NTwOuts             - Number of tower node outputs [0 - 9]  (-)
          1,          2    TwOutNd             - Tower nodes whose values will be output  (-)
                   OutList             - The next line(s) contains a list of output parameters.  See OutListParameters.xlsx for a listing of available output channels, (-) 
END of input file (the word "END" must appear in the first 3 columns of this last OutList line)
---------------------------------------------------------------------------------------
