------- ELASTODYN V1.00.* INDIVIDUAL BLADE INPUT FILE --------------------------
Light blade
---------------------- BLADE PARAMETERS ----------------------------------------
         49   NBlInpSt    - Number of blade input stations (-)
   0.477465   BldFlDmp(1) - Blade flap mode #1 structural damping in percent of critical (%)
   0.477465   BldFlDmp(2) - Blade flap mode #2 structural damping in percent of critical (%)
   0.477465   BldEdDmp(1) - Blade edge mode #1 structural damping in percent of critical (%)
---------------------- BLADE ADJUSTMENT FACTORS --------------------------------
          1   FlStTunr(1) - Blade flapwise modal stiffness tuner, 1st mode (-)
          1   FlStTunr(2) - Blade flapwise modal stiffness tuner, 2nd mode (-)
        1.0   AdjBlMs     - Factor to adjust blade mass density (-)  !bjj: value for AD14=1.04536; value for AeroDyn=1.057344 (it would be nice to enter the requested blade mass instead of a factor here)
          1   AdjFlSt     - Factor to adjust blade flap stiffness (-)
          1   AdjEdSt     - Factor to adjust blade edge stiffness (-)
---------------------- DISTRIBUTED BLADE PROPERTIES ----------------------------
        BlFract               StrcTwst               BMassDen               FlpStff                 EdgStff
          (-)                   (deg)                 (kg/m)                 (Nm^2)                  (Nm^2)
 0.000000000000000E+00  0.000000000000000E+00  5.000000000000000E-06  1.800000000000000E+10  1.800000000000000E+10
 3.250000000000000E-03  0.000000000000000E+00  5.000000000000000E-06  1.800000000000000E+10  1.800000000000000E+10
 1.951000000000000E-02  0.000000000000000E+00  5.000000000000000E-06  1.800000000000000E+10  1.800000000000000E+10
 3.577000000000000E-02  0.000000000000000E+00  5.000000000000000E-06  1.800000000000000E+10  1.800000000000000E+10
 5.203000000000000E-02  0.000000000000000E+00  5.000000000000000E-06  1.800000000000000E+10  1.800000000000000E+10
 6.829000000000000E-02  0.000000000000000E+00  5.000000000000000E-06  1.800000000000000E+10  1.800000000000000E+10
 8.455000000000000E-02  0.000000000000000E+00  5.000000000000000E-06  1.800000000000000E+10  1.800000000000000E+10
 1.008100000000000E-01  0.000000000000000E+00  5.000000000000000E-06  1.800000000000000E+10  1.800000000000000E+10
 1.170700000000000E-01  0.000000000000000E+00  5.000000000000000E-06  1.800000000000000E+10  1.800000000000000E+10
 1.333500000000000E-01  0.000000000000000E+00  5.000000000000000E-06  1.800000000000000E+10  1.800000000000000E+10
 1.495900000000000E-01  0.000000000000000E+00  5.000000000000000E-06  1.800000000000000E+10  1.800000000000000E+10
 1.658500000000000E-01  0.000000000000000E+00  5.000000000000000E-06  1.800000000000000E+10  1.800000000000000E+10
 1.821100000000000E-01  0.000000000000000E+00  5.000000000000000E-06  1.800000000000000E+10  1.800000000000000E+10
 1.983700000000000E-01  0.000000000000000E+00  5.000000000000000E-06  1.800000000000000E+10  1.800000000000000E+10
 2.146500000000000E-01  0.000000000000000E+00  5.000000000000000E-06  1.800000000000000E+10  1.800000000000000E+10
 2.308900000000000E-01  0.000000000000000E+00  5.000000000000000E-06  1.800000000000000E+10  1.800000000000000E+10
 2.471500000000000E-01  0.000000000000000E+00  5.000000000000000E-06  1.800000000000000E+10  1.800000000000000E+10
 2.634100000000000E-01  0.000000000000000E+00  5.000000000000000E-06  1.800000000000000E+10  1.800000000000000E+10
 2.959500000000000E-01  0.000000000000000E+00  5.000000000000000E-06  1.800000000000000E+10  1.800000000000000E+10
 3.284600000000000E-01  0.000000000000000E+00  5.000000000000000E-06  1.800000000000000E+10  1.800000000000000E+10
 3.609800000000000E-01  0.000000000000000E+00  5.000000000000000E-06  1.800000000000000E+10  1.800000000000000E+10
 3.935000000000000E-01  0.000000000000000E+00  5.000000000000000E-06  1.800000000000000E+10  1.800000000000000E+10
 4.260200000000000E-01  0.000000000000000E+00  5.000000000000000E-06  1.800000000000000E+10  1.800000000000000E+10
 4.585500000000000E-01  0.000000000000000E+00  5.000000000000000E-06  1.800000000000000E+10  1.800000000000000E+10
 4.910600000000000E-01  0.000000000000000E+00  5.000000000000000E-06  1.800000000000000E+10  1.800000000000000E+10
 5.235800000000000E-01  0.000000000000000E+00  5.000000000000000E-06  1.800000000000000E+10  1.800000000000000E+10
 5.561000000000000E-01  0.000000000000000E+00  5.000000000000000E-06  1.800000000000000E+10  1.800000000000000E+10
 5.886200000000000E-01  0.000000000000000E+00  5.000000000000000E-06  1.800000000000000E+10  1.800000000000000E+10
 6.211500000000000E-01  0.000000000000000E+00  5.000000000000000E-06  1.800000000000000E+10  1.800000000000000E+10
 6.536600000000000E-01  0.000000000000000E+00  5.000000000000000E-06  1.800000000000000E+10  1.800000000000000E+10
 6.861800000000000E-01  0.000000000000000E+00  5.000000000000000E-06  1.800000000000000E+10  1.800000000000000E+10
 7.187000000000000E-01  0.000000000000000E+00  5.000000000000000E-06  1.800000000000000E+10  1.800000000000000E+10
 7.512200000000000E-01  0.000000000000000E+00  5.000000000000000E-06  1.800000000000000E+10  1.800000000000000E+10
 7.837600000000000E-01  0.000000000000000E+00  5.000000000000000E-06  1.800000000000000E+10  1.800000000000000E+10
 8.162600000000000E-01  0.000000000000000E+00  5.000000000000000E-06  1.800000000000000E+10  1.800000000000000E+10
 8.487800000000000E-01  0.000000000000000E+00  5.000000000000000E-06  1.800000000000000E+10  1.800000000000000E+10
 8.813000000000000E-01  0.000000000000000E+00  5.000000000000000E-06  1.800000000000000E+10  1.800000000000000E+10
 8.975600000000000E-01  0.000000000000000E+00  5.000000000000000E-06  1.800000000000000E+10  1.800000000000000E+10
 9.138200000000000E-01  0.000000000000000E+00  5.000000000000000E-06  1.800000000000000E+10  1.800000000000000E+10
 9.300800000000000E-01  0.000000000000000E+00  5.000000000000000E-06  1.800000000000000E+10  1.800000000000000E+10
 9.382100000000000E-01  0.000000000000000E+00  5.000000000000000E-06  1.800000000000000E+10  1.800000000000000E+10
 9.463600000000000E-01  0.000000000000000E+00  5.000000000000000E-06  1.800000000000000E+10  1.800000000000000E+10
 9.544700000000000E-01  0.000000000000000E+00  5.000000000000000E-06  1.800000000000000E+10  1.800000000000000E+10
 9.626000000000000E-01  0.000000000000000E+00  5.000000000000000E-06  1.800000000000000E+10  1.800000000000000E+10
 9.707300000000000E-01  0.000000000000000E+00  5.000000000000000E-06  1.800000000000000E+10  1.800000000000000E+10
 9.788600000000000E-01  0.000000000000000E+00  5.000000000000000E-06  1.800000000000000E+10  1.800000000000000E+10
 9.869900000000000E-01  0.000000000000000E+00  5.000000000000000E-06  1.800000000000000E+10  1.800000000000000E+10
 9.951200000000000E-01  0.000000000000000E+00  5.000000000000000E-06  1.800000000000000E+10  1.800000000000000E+10
 1.000000000000000E+00  0.000000000000000E+00  5.000000000000000E-06  1.800000000000000E+10  1.800000000000000E+10
---------------------- BLADE MODE SHAPES ---------------------------------------
     0.0622   BldFl1Sh(2) - Flap mode 1, coeff of x^2
     1.7254   BldFl1Sh(3) -            , coeff of x^3
    -3.2452   BldFl1Sh(4) -            , coeff of x^4
     4.7131   BldFl1Sh(5) -            , coeff of x^5
    -2.2555   BldFl1Sh(6) -            , coeff of x^6
    -0.5809   BldFl2Sh(2) - Flap mode 2, coeff of x^2
     1.2067   BldFl2Sh(3) -            , coeff of x^3
   -15.5349   BldFl2Sh(4) -            , coeff of x^4
    29.7347   BldFl2Sh(5) -            , coeff of x^5
   -13.8255   BldFl2Sh(6) -            , coeff of x^6
     0.3627   BldEdgSh(2) - Edge mode 1, coeff of x^2
     2.5337   BldEdgSh(3) -            , coeff of x^3
    -3.5772   BldEdgSh(4) -            , coeff of x^4
      2.376   BldEdgSh(5) -            , coeff of x^5
    -0.6952   BldEdgSh(6) -            , coeff of x^6
