Example user wave component file in OpenFAST format
0.703717,0.54768768,-100.83703341,-109.22570984
0.804248,0.42442801,-98.31276862,-89.60981113
0.578053,0.96689240,-125.54815445,41.77608341
0.728849,0.51424826,-125.64484170,-9.61601440
0.741416,0.49816955,-134.73683541,-53.40257746
0.376991,0.30851171,-100.99676921,119.09830604
0.992743,0.26726729,-132.84519313,30.69507281
0.339292,0.11862165,-148.32783468,17.90049898
1.156106,0.18669314,-108.18487590,150.18971898
0.502655,1.22318502,-131.61566978,-77.09795322
1.168672,0.18191725,-140.49852285,92.59208248
0.439823,0.63926413,-130.76527126,91.34247394
0.980177,0.27521937,-149.21272849,-43.03949509
0.678584,0.58341744,-147.08160244,24.41579066
0.867080,0.36207809,-98.47696455,-152.69245576
1.055575,0.23167935,-97.63192759,-160.57795728
1.231504,0.16035517,-120.48748430,11.08711908
1.206372,0.16854175,-151.41322742,100.50020284
1.080708,0.21918736,-140.91320520,156.24384632
1.181239,0.17730445,-133.81048573,-133.23376495
0.942478,0.30095949,-105.72835759,24.77651791
0.716283,0.53074791,-154.07579374,-11.01936922
0.389557,0.37849630,-152.41857190,-175.71525498
0.779115,0.45255530,-144.86059823,-58.63584802
1.030442,0.24512529,-116.05307150,-121.61436905
1.256637,0.15269919,-111.09665686,105.94243465
0.829380,0.39814533,-116.13524221,-67.96258486
0.653451,0.62508013,-127.94457761,10.27192878
0.515221,1.32772152,-122.17946646,-120.36645738
0.816814,0.41105780,-137.22075166,36.71349890
0.892212,0.34015534,-110.31843158,-85.33033757
0.477522,0.92861817,-143.66269910,55.46847545
0.879646,0.35091227,-113.79347400,68.11722113
1.005310,0.25960872,-143.98933066,89.33457342
1.093274,0.21327472,-132.89092421,-17.80502454
0.402124,0.44666976,-117.46288636,-149.82430392
1.143540,0.19163910,-108.18635389,-97.56829126
1.043009,0.23827800,-150.13245387,148.80145014
0.364425,0.23951136,-99.23684174,-125.14391317
0.904779,0.32979465,-108.45723928,117.29411190
0.967611,0.28347708,-125.79250206,13.80327669
0.666018,0.60302732,-128.84848469,178.60849799
0.565487,1.08173288,-128.19297503,-151.85680965
0.615752,0.72932476,-136.61903168,-20.63582288
0.955044,0.29205287,-124.48948068,-141.60500273
0.766549,0.46731071,-124.35370615,166.28330911
1.105841,0.20757209,-105.94233750,-178.33167931
0.691150,0.56515951,-107.31011499,98.96776730
0.917345,0.31981722,-116.34091219,114.22915944
0.640885,0.65143688,-132.28343704,132.73009393
1.068142,0.22531908,-106.30517250,-149.60309562
0.929911,0.31020990,-123.03046467,-36.07824632
0.628319,0.68492218,-133.95637379,-86.44665497
0.841947,0.38568391,-98.65990628,108.02465288
0.540354,1.29545351,-102.44343131,-24.69102211
0.854513,0.37366488,-121.99061943,147.83313399
0.490088,1.07500081,-117.65149484,-114.53506981
1.218938,0.16437939,-119.77731773,-85.03095005
0.314159,0.04006540,-142.53546244,-127.60596706
0.753982,0.48251925,-136.92522018,-131.01531886
1.193805,0.17284807,-126.74459909,132.94519475
0.590619,0.86778490,-141.17071039,28.69365145
1.118407,0.20207078,-104.34147244,17.94967266
0.326726,0.07316175,-143.31414263,-127.81627264
0.351858,0.17502464,-141.44469314,127.09120238
0.527788,1.34651247,-144.75751717,43.93984733
1.244071,0.15646354,-141.34014213,-53.65714288
0.603186,0.78899985,-128.85807895,4.76983435
0.791681,0.43826015,-136.33386280,-35.34910785
0.464956,0.80736221,-99.59722147,-152.65199099
0.414690,0.51168831,-129.18755652,-93.63018472
1.130973,0.19676244,-143.91102079,-135.60518346
0.552920,1.19877493,-100.70714188,-113.79319622
1.017876,0.25223185,-96.21509730,-93.61709076
0.427257,0.57451028,-128.66780161,-29.78385513
0.452389,0.71357895,-148.33284659,-162.12440508