------- HydroDyn Input File ----------------------------------------------------
Twin-rotor semisubmersible with two NREL 5-MW turbines - hydrodynamic model
False            Echo           - Echo the input file data (flag)
---------------------- FLOATING PLATFORM --------------------------------------- [unused with WaveMod=6]
             1   PotMod         - Potential-flow model {0: none=no potential flow, 1: frequency-to-time-domain transforms based on WAMIT output, 2: fluid-impulse theory (FIT)} (switch)
             1   ExctnMod       - Wave-excitation model {0: no wave-excitation calculation, 1: DFT, 2: state-space} (switch) [only used when PotMod=1; STATE-SPACE REQUIRES *.ssexctn INPUT FILE]
             0   ExctnDisp      - Method of computing Wave Excitation {0: use undisplaced position, 1: use displaced position, 2: use low-pass filtered displaced position) [only used when PotMod=1 and ExctnMod>0 and SeaState's WaveMod>0]} (switch)
            10   ExctnCutOff    - Cutoff (corner) frequency of the low-pass time-filtered displaced position (Hz) [>0.0] [used only when PotMod=1, ExctnMod>0, and ExctnDisp=2]) [only used when PotMod=1 and ExctnMod>0 and SeaState's WaveMod>0]} (switch)
             0   PtfmYMod       - Model for large platform yaw offset {0: Static reference yaw offset based on PtfmRefY, 1: dynamic reference yaw offset based on low-pass filtering the PRP yaw motion with cutoff frequency PtfmYCutOff} (switch)
             0   PtfmRefY       - Constant (if PtfmYMod=0) or initial (if PtfmYMod=1) platform reference yaw offset (deg)
          0.01   PtfmYCutOff    - Cutoff frequency for the low-pass filtering of PRP yaw motion when PtfmYMod=1 [unused when PtfmYMod=0] (Hz)
            36   NExctnHdg      - Number of evenly distributed platform yaw/heading angles over the range of [-180, 180) deg for which the wave excitation shall be computed [only used when PtfmYMod=1] (-)
             1   RdtnMod        - Radiation memory-effect model {0: no memory-effect calculation, 1: convolution, 2: state-space} (switch) [only used when PotMod=1; STATE-SPACE REQUIRES *.ss INPUT FILE]
            60   RdtnTMax       - Analysis time for wave radiation kernel calculations (sec) [only used when PotMod=1 and RdtnMod>0; determines RdtnDOmega=Pi/RdtnTMax in the cosine transform; MAKE SURE THIS IS LONG ENOUGH FOR THE RADIATION IMPULSE RESPONSE FUNCTIONS TO DECAY TO NEAR-ZERO FOR THE GIVEN PLATFORM!]
     "default"   RdtnDT         - Time step for wave radiation kernel calculations (sec) [only used when PotMod=1 and ExctnMod>0 or RdtnMod>0; DT<=RdtnDT<=0.1 recommended; determines RdtnOmegaMax=Pi/RdtnDT in the cosine transform]
             5   NBody          - Number of WAMIT bodies to be used (-) [>=1; only used when PotMod=1. If NBodyMod=1, the WAMIT data contains a vector of size 6*NBody x 1 and matrices of size 6*NBody x 6*NBody; if NBodyMod>1, there are NBody sets of WAMIT data each with a vector of size 6 x 1 and matrices of size 6 x 6]
             1   NBodyMod       - Body coupling model {1: include coupling terms between each body and NBody in HydroDyn equals NBODY in WAMIT, 2: neglect coupling terms between each body and NBODY=1 with XBODY=0 in WAMIT, 3: Neglect coupling terms between each body and NBODY=1 with XBODY=/0 in WAMIT} (switch) [only used when PotMod=1]
"HydroData/MRSemi"    PotFile       - Root name of potential-flow model data; WAMIT output files containing the linear, nondimensionalized, hydrostatic restoring matrix (.hst), frequency-dependent hydrodynamic added mass matrix and damping matrix (.1), and frequency- and direction-dependent wave excitation force vector per unit wave amplitude (.3) (quoted string) [1 to NBody if NBodyMod>1] [MAKE SURE THE FREQUENCIES INHERENT IN THESE WAMIT FILES SPAN THE PHYSICALLY-SIGNIFICANT RANGE OF FREQUENCIES FOR THE GIVEN PLATFORM; THEY MUST CONTAIN THE ZERO- AND INFINITE-FREQUENCY LIMITS!]
             1   WAMITULEN      - Characteristic body length scale used to redimensionalize WAMIT output (meters) [1 to NBody if NBodyMod>1] [only used when PotMod=1]
 -60.622,    -60.622,      0.0,        0.0,        0.0       PtfmRefxt      - The xt offset of the body reference point(s) from (0,0,0) (meters) [1 to NBody] [only used when PotMod=1]
 -35.000,     35.000,    -70.0,        0.0,       70.0       PtfmRefyt      - The yt offset of the body reference point(s) from (0,0,0) (meters) [1 to NBody] [only used when PotMod=1]
   0.000,      0.000,      0.0,        0.0,        0.0       PtfmRefzt      - The zt offset of the body reference point(s) from (0,0,0) (meters) [1 to NBody] [only used when PotMod=1. If NBodyMod=2,PtfmRefzt=0.0]
   0.000,      0.000,      0.0,        0.0,        0.0       PtfmRefztRot   - The rotation about zt of the body reference frame(s) from xt/yt (degrees) [1 to NBody] [only used when PotMod=1]
4297.69875, 4297.69875, 4297.69875, 4297.69875, 4297.69875   PtfmVol0       - Displaced volume of water when the body is in its undisplaced position (m^3) [1 to NBody] [only used when PotMod=1; USE THE SAME VALUE COMPUTED BY WAMIT AS OUTPUT IN THE .OUT FILE!]
 -60.622,    -60.622,      0.0,        0.0,        0.0       PtfmCOBxt      - The xt offset of the center of buoyancy (COB) from (0,0) (meters) [1 to NBody] [only used when PotMod=1]
 -35.000,     35.000,    -70.0,        0.0,       70.0       PtfmCOByt      - The yt offset of the center of buoyancy (COB) from (0,0) (meters) [1 to NBody] [only used when PotMod=1]
       0,          0,        0,          0,          0       NAddDOF        - Number of additional generalized DOF of each WAMIT body (-) [1 to NBody] [>=0; =0 if NBody>1; only used when PotMod=1]
---------------------- 2ND-ORDER FLOATING PLATFORM FORCES ---------------------- [unused with WaveMod=0 or 6, or PotMod=0 or 2]
             0   MnDrift        - Mean-drift 2nd-order forces computed                                       {0: None; [7, 8, 9, 10, 11, or 12]: WAMIT file to use} [Only one of MnDrift, NewmanApp, or DiffQTF can be non-zero. If NBody>1, MnDrift  /=8]
             0   NewmanApp      - Mean- and slow-drift 2nd-order forces computed with Newman's approximation {0: None; [7, 8, 9, 10, 11, or 12]: WAMIT file to use} [Only one of MnDrift, NewmanApp, or DiffQTF can be non-zero. If NBody>1, NewmanApp/=8. Used only when WaveDirMod=0]
             0   DiffQTF        - Full difference-frequency 2nd-order forces computed with full QTF          {0: None; [10, 11, or 12]: WAMIT file to use}          [Only one of MnDrift, NewmanApp, or DiffQTF can be non-zero]
             0   SumQTF         - Full summation -frequency 2nd-order forces computed with full QTF          {0: None; [10, 11, or 12]: WAMIT file to use}
---------------------- PLATFORM ADDITIONAL STIFFNESS AND DAMPING  -------------- [unused with PotMod=0 or 2]
 0   AddF0    - Additional preload (N, N-m)  [If NBodyMod=1, one size 6*NBody x 1 vector; if NBodyMod>1, NBody size 6 x 1 vectors]
 0
 0
 0
 0
 0
 0
 0
 0
 0
 0
 0
 0
 0
 0
 0
 0
 0
 0
 0
 0
 0
 0
 0
 0
 0
 0
 0
 0
 0
 0 0 0 0 0 0 0 0 0 0 0 0 0 0 0 0 0 0 0 0 0 0 0 0 0 0 0 0 0 0   AddCLin  - Additional linear stiffness (N/m, N/rad, N-m/m, N-m/rad)  [If NBodyMod=1, one size 6*NBody x 6*NBody matrix; if NBodyMod>1, NBody size 6 x 6 matrices]
 0 0 0 0 0 0 0 0 0 0 0 0 0 0 0 0 0 0 0 0 0 0 0 0 0 0 0 0 0 0
 0 0 0 0 0 0 0 0 0 0 0 0 0 0 0 0 0 0 0 0 0 0 0 0 0 0 0 0 0 0
 0 0 0 0 0 0 0 0 0 0 0 0 0 0 0 0 0 0 0 0 0 0 0 0 0 0 0 0 0 0
 0 0 0 0 0 0 0 0 0 0 0 0 0 0 0 0 0 0 0 0 0 0 0 0 0 0 0 0 0 0
 0 0 0 0 0 0 0 0 0 0 0 0 0 0 0 0 0 0 0 0 0 0 0 0 0 0 0 0 0 0
 0 0 0 0 0 0 0 0 0 0 0 0 0 0 0 0 0 0 0 0 0 0 0 0 0 0 0 0 0 0
 0 0 0 0 0 0 0 0 0 0 0 0 0 0 0 0 0 0 0 0 0 0 0 0 0 0 0 0 0 0
 0 0 0 0 0 0 0 0 0 0 0 0 0 0 0 0 0 0 0 0 0 0 0 0 0 0 0 0 0 0
 0 0 0 0 0 0 0 0 0 0 0 0 0 0 0 0 0 0 0 0 0 0 0 0 0 0 0 0 0 0
 0 0 0 0 0 0 0 0 0 0 0 0 0 0 0 0 0 0 0 0 0 0 0 0 0 0 0 0 0 0
 0 0 0 0 0 0 0 0 0 0 0 0 0 0 0 0 0 0 0 0 0 0 0 0 0 0 0 0 0 0
 0 0 0 0 0 0 0 0 0 0 0 0 0 0 0 0 0 0 0 0 0 0 0 0 0 0 0 0 0 0
 0 0 0 0 0 0 0 0 0 0 0 0 0 0 0 0 0 0 0 0 0 0 0 0 0 0 0 0 0 0
 0 0 0 0 0 0 0 0 0 0 0 0 0 0 0 0 0 0 0 0 0 0 0 0 0 0 0 0 0 0
 0 0 0 0 0 0 0 0 0 0 0 0 0 0 0 0 0 0 0 0 0 0 0 0 0 0 0 0 0 0
 0 0 0 0 0 0 0 0 0 0 0 0 0 0 0 0 0 0 0 0 0 0 0 0 0 0 0 0 0 0
 0 0 0 0 0 0 0 0 0 0 0 0 0 0 0 0 0 0 0 0 0 0 0 0 0 0 0 0 0 0
 0 0 0 0 0 0 0 0 0 0 0 0 0 0 0 0 0 0 0 0 0 0 0 0 0 0 0 0 0 0
 0 0 0 0 0 0 0 0 0 0 0 0 0 0 0 0 0 0 0 0 0 0 0 0 0 0 0 0 0 0
 0 0 0 0 0 0 0 0 0 0 0 0 0 0 0 0 0 0 0 0 0 0 0 0 0 0 0 0 0 0
 0 0 0 0 0 0 0 0 0 0 0 0 0 0 0 0 0 0 0 0 0 0 0 0 0 0 0 0 0 0
 0 0 0 0 0 0 0 0 0 0 0 0 0 0 0 0 0 0 0 0 0 0 0 0 0 0 0 0 0 0
 0 0 0 0 0 0 0 0 0 0 0 0 0 0 0 0 0 0 0 0 0 0 0 0 0 0 0 0 0 0
 0 0 0 0 0 0 0 0 0 0 0 0 0 0 0 0 0 0 0 0 0 0 0 0 0 0 0 0 0 0
 0 0 0 0 0 0 0 0 0 0 0 0 0 0 0 0 0 0 0 0 0 0 0 0 0 0 0 0 0 0
 0 0 0 0 0 0 0 0 0 0 0 0 0 0 0 0 0 0 0 0 0 0 0 0 0 0 0 0 0 0
 0 0 0 0 0 0 0 0 0 0 0 0 0 0 0 0 0 0 0 0 0 0 0 0 0 0 0 0 0 0
 0 0 0 0 0 0 0 0 0 0 0 0 0 0 0 0 0 0 0 0 0 0 0 0 0 0 0 0 0 0
 0 0 0 0 0 0 0 0 0 0 0 0 0 0 0 0 0 0 0 0 0 0 0 0 0 0 0 0 0 0
 0 0 0 0 0 0 0 0 0 0 0 0 0 0 0 0 0 0 0 0 0 0 0 0 0 0 0 0 0 0   AddBLin  - Additional linear damping(N/(m/s), N/(rad/s), N-m/(m/s), N-m/(rad/s))  [If NBodyMod=1, one size 6*NBody x 6*NBody matrix; if NBodyMod>1, NBody size 6 x 6 matrices]
 0 0 0 0 0 0 0 0 0 0 0 0 0 0 0 0 0 0 0 0 0 0 0 0 0 0 0 0 0 0
 0 0 0 0 0 0 0 0 0 0 0 0 0 0 0 0 0 0 0 0 0 0 0 0 0 0 0 0 0 0
 0 0 0 0 0 0 0 0 0 0 0 0 0 0 0 0 0 0 0 0 0 0 0 0 0 0 0 0 0 0
 0 0 0 0 0 0 0 0 0 0 0 0 0 0 0 0 0 0 0 0 0 0 0 0 0 0 0 0 0 0
 0 0 0 0 0 0 0 0 0 0 0 0 0 0 0 0 0 0 0 0 0 0 0 0 0 0 0 0 0 0
 0 0 0 0 0 0 0 0 0 0 0 0 0 0 0 0 0 0 0 0 0 0 0 0 0 0 0 0 0 0
 0 0 0 0 0 0 0 0 0 0 0 0 0 0 0 0 0 0 0 0 0 0 0 0 0 0 0 0 0 0
 0 0 0 0 0 0 0 0 0 0 0 0 0 0 0 0 0 0 0 0 0 0 0 0 0 0 0 0 0 0
 0 0 0 0 0 0 0 0 0 0 0 0 0 0 0 0 0 0 0 0 0 0 0 0 0 0 0 0 0 0
 0 0 0 0 0 0 0 0 0 0 0 0 0 0 0 0 0 0 0 0 0 0 0 0 0 0 0 0 0 0
 0 0 0 0 0 0 0 0 0 0 0 0 0 0 0 0 0 0 0 0 0 0 0 0 0 0 0 0 0 0
 0 0 0 0 0 0 0 0 0 0 0 0 0 0 0 0 0 0 0 0 0 0 0 0 0 0 0 0 0 0
 0 0 0 0 0 0 0 0 0 0 0 0 0 0 0 0 0 0 0 0 0 0 0 0 0 0 0 0 0 0
 0 0 0 0 0 0 0 0 0 0 0 0 0 0 0 0 0 0 0 0 0 0 0 0 0 0 0 0 0 0
 0 0 0 0 0 0 0 0 0 0 0 0 0 0 0 0 0 0 0 0 0 0 0 0 0 0 0 0 0 0
 0 0 0 0 0 0 0 0 0 0 0 0 0 0 0 0 0 0 0 0 0 0 0 0 0 0 0 0 0 0
 0 0 0 0 0 0 0 0 0 0 0 0 0 0 0 0 0 0 0 0 0 0 0 0 0 0 0 0 0 0
 0 0 0 0 0 0 0 0 0 0 0 0 0 0 0 0 0 0 0 0 0 0 0 0 0 0 0 0 0 0
 0 0 0 0 0 0 0 0 0 0 0 0 0 0 0 0 0 0 0 0 0 0 0 0 0 0 0 0 0 0
 0 0 0 0 0 0 0 0 0 0 0 0 0 0 0 0 0 0 0 0 0 0 0 0 0 0 0 0 0 0
 0 0 0 0 0 0 0 0 0 0 0 0 0 0 0 0 0 0 0 0 0 0 0 0 0 0 0 0 0 0
 0 0 0 0 0 0 0 0 0 0 0 0 0 0 0 0 0 0 0 0 0 0 0 0 0 0 0 0 0 0
 0 0 0 0 0 0 0 0 0 0 0 0 0 0 0 0 0 0 0 0 0 0 0 0 0 0 0 0 0 0
 0 0 0 0 0 0 0 0 0 0 0 0 0 0 0 0 0 0 0 0 0 0 0 0 0 0 0 0 0 0
 0 0 0 0 0 0 0 0 0 0 0 0 0 0 0 0 0 0 0 0 0 0 0 0 0 0 0 0 0 0
 0 0 0 0 0 0 0 0 0 0 0 0 0 0 0 0 0 0 0 0 0 0 0 0 0 0 0 0 0 0
 0 0 0 0 0 0 0 0 0 0 0 0 0 0 0 0 0 0 0 0 0 0 0 0 0 0 0 0 0 0
 0 0 0 0 0 0 0 0 0 0 0 0 0 0 0 0 0 0 0 0 0 0 0 0 0 0 0 0 0 0
 0 0 0 0 0 0 0 0 0 0 0 0 0 0 0 0 0 0 0 0 0 0 0 0 0 0 0 0 0 0
 0 0 0 0 0 0 0 0 0 0 0 0 0 0 0 0 0 0 0 0 0 0 0 0 0 0 0 0 0 0   AddBQuad - Additional quadratic drag(N/(m/s)^2, N/(rad/s)^2, N-m(m/s)^2, N-m/(rad/s)^2)  [If NBodyMod=1, one size 6*NBody x 6*NBody matrix; if NBodyMod>1, NBody size 6 x 6 matrices]
 0 0 0 0 0 0 0 0 0 0 0 0 0 0 0 0 0 0 0 0 0 0 0 0 0 0 0 0 0 0
 0 0 0 0 0 0 0 0 0 0 0 0 0 0 0 0 0 0 0 0 0 0 0 0 0 0 0 0 0 0
 0 0 0 0 0 0 0 0 0 0 0 0 0 0 0 0 0 0 0 0 0 0 0 0 0 0 0 0 0 0
 0 0 0 0 0 0 0 0 0 0 0 0 0 0 0 0 0 0 0 0 0 0 0 0 0 0 0 0 0 0
 0 0 0 0 0 0 0 0 0 0 0 0 0 0 0 0 0 0 0 0 0 0 0 0 0 0 0 0 0 0
 0 0 0 0 0 0 0 0 0 0 0 0 0 0 0 0 0 0 0 0 0 0 0 0 0 0 0 0 0 0
 0 0 0 0 0 0 0 0 0 0 0 0 0 0 0 0 0 0 0 0 0 0 0 0 0 0 0 0 0 0
 0 0 0 0 0 0 0 0 0 0 0 0 0 0 0 0 0 0 0 0 0 0 0 0 0 0 0 0 0 0
 0 0 0 0 0 0 0 0 0 0 0 0 0 0 0 0 0 0 0 0 0 0 0 0 0 0 0 0 0 0
 0 0 0 0 0 0 0 0 0 0 0 0 0 0 0 0 0 0 0 0 0 0 0 0 0 0 0 0 0 0
 0 0 0 0 0 0 0 0 0 0 0 0 0 0 0 0 0 0 0 0 0 0 0 0 0 0 0 0 0 0
 0 0 0 0 0 0 0 0 0 0 0 0 0 0 0 0 0 0 0 0 0 0 0 0 0 0 0 0 0 0
 0 0 0 0 0 0 0 0 0 0 0 0 0 0 0 0 0 0 0 0 0 0 0 0 0 0 0 0 0 0
 0 0 0 0 0 0 0 0 0 0 0 0 0 0 0 0 0 0 0 0 0 0 0 0 0 0 0 0 0 0
 0 0 0 0 0 0 0 0 0 0 0 0 0 0 0 0 0 0 0 0 0 0 0 0 0 0 0 0 0 0
 0 0 0 0 0 0 0 0 0 0 0 0 0 0 0 0 0 0 0 0 0 0 0 0 0 0 0 0 0 0
 0 0 0 0 0 0 0 0 0 0 0 0 0 0 0 0 0 0 0 0 0 0 0 0 0 0 0 0 0 0
 0 0 0 0 0 0 0 0 0 0 0 0 0 0 0 0 0 0 0 0 0 0 0 0 0 0 0 0 0 0
 0 0 0 0 0 0 0 0 0 0 0 0 0 0 0 0 0 0 0 0 0 0 0 0 0 0 0 0 0 0
 0 0 0 0 0 0 0 0 0 0 0 0 0 0 0 0 0 0 0 0 0 0 0 0 0 0 0 0 0 0
 0 0 0 0 0 0 0 0 0 0 0 0 0 0 0 0 0 0 0 0 0 0 0 0 0 0 0 0 0 0
 0 0 0 0 0 0 0 0 0 0 0 0 0 0 0 0 0 0 0 0 0 0 0 0 0 0 0 0 0 0
 0 0 0 0 0 0 0 0 0 0 0 0 0 0 0 0 0 0 0 0 0 0 0 0 0 0 0 0 0 0
 0 0 0 0 0 0 0 0 0 0 0 0 0 0 0 0 0 0 0 0 0 0 0 0 0 0 0 0 0 0
 0 0 0 0 0 0 0 0 0 0 0 0 0 0 0 0 0 0 0 0 0 0 0 0 0 0 0 0 0 0
 0 0 0 0 0 0 0 0 0 0 0 0 0 0 0 0 0 0 0 0 0 0 0 0 0 0 0 0 0 0
 0 0 0 0 0 0 0 0 0 0 0 0 0 0 0 0 0 0 0 0 0 0 0 0 0 0 0 0 0 0
 0 0 0 0 0 0 0 0 0 0 0 0 0 0 0 0 0 0 0 0 0 0 0 0 0 0 0 0 0 0
 0 0 0 0 0 0 0 0 0 0 0 0 0 0 0 0 0 0 0 0 0 0 0 0 0 0 0 0 0 0
---------------------- STRIP THEORY OPTIONS --------------------------------------
             0   WaveDisp       - Method of computing Wave Kinematics {0: use undisplaced position, 1: use displaced position) } (switch)
             0   AMMod          - Method of computing distributed added-mass force. (0: Only and always on nodes below SWL at the undisplaced position. 1: Up to the instantaneous free surface) [overwrite to 0 when WaveStMod = 0 in SeaState]
---------------------- AXIAL COEFFICIENTS --------------------------------------
             3   NAxCoef        - Number of axial coefficients (-)
AxCoefID  AxCd     AxCa     AxCp    AxFDMod   AxVnCOff  AxFDLoFSc
   (-)    (-)      (-)      (-)     (switch)   (Hz)       (-)
    1     0.00     0.00     0.00      0        0.00       1.00    ! Unloaded joints
    2     4.60     0.00     0.00      1        0.06       0.50    ! Heave plates
    3     0.00     1.00     1.00      0        0.00       1.00    ! Endplates of pontoons and braces
---------------------- MEMBER JOINTS -------------------------------------------
            55   NJoints        - Number of joints (-)   [must be exactly 0 or at least 2]
JointID   Jointxi    Jointyi    Jointzi  JointAxID   JointOvrlp   [JointOvrlp= 0: do nothing at joint, 1: eliminate overlaps by calculating super member]
   (-)     (m)         (m)        (m)        (-)       (switch)
    1    -60.622     -35.0      -20.0         2           0      ! Column 1A
    2    -60.622     -35.0      -14.0         2           0
    3    -60.622     -35.0      -14.0         1           0
    4    -60.622     -35.0       10.0         1           0
    5    -60.622      35.0      -20.0         2           0      ! Column 1B
    6    -60.622      35.0      -14.0         2           0
    7    -60.622      35.0      -14.0         1           0
    8    -60.622      35.0       10.0         1           0
    9      0.000     -70.0      -20.0         2           0      ! Column 2A
   10      0.000     -70.0      -14.0         2           0
   11      0.000     -70.0      -14.0         1           0
   12      0.000     -70.0       10.0         1           0
   13      0.000       0.0      -20.0         2           0      ! Column 2B
   14      0.000       0.0      -14.0         2           0
   15      0.000       0.0      -14.0         1           0
   16      0.000       0.0       10.0         1           0
   17      0.000      70.0      -20.0         2           0      ! Column 2C
   18      0.000      70.0      -14.0         2           0
   19      0.000      70.0      -14.0         1           0
   20      0.000      70.0       10.0         1           0
   21    -60.622     -23.0      -17.0         3           0      ! Connections 1A to 1B
   22    -60.622       0.0      -17.0         3           0
   23    -60.622      23.0      -17.0         3           0
   24    -60.622     -29.0        8.0         3           0
   25    -60.622      29.0        8.0         3           0
   26    -50.229     -41.0      -17.0         3           0      ! Connections 1A to 2A
   27    -30.311     -52.5      -17.0         3           0
   28    -10.392     -64.0      -17.0         3           0
   29    -55.426     -38.0        8.0         3           0
   30     -5.196     -67.0        8.0         3           0
   31    -50.229     -29.0      -17.0         3           0      ! Connections 1A to 2B
   32    -30.311     -17.5      -17.0         3           0
   33    -10.392      -6.0      -17.0         3           0
   34    -55.426     -32.0        8.0         3           0
   35     -5.196      -3.0        8.0         3           0
   36    -50.229      29.0      -17.0         3           0      ! Connections 1B to 2B
   37    -30.311      17.5      -17.0         3           0
   38    -10.392       6.0      -17.0         3           0
   39    -55.426      32.0        8.0         3           0
   40     -5.196       3.0        8.0         3           0
   41    -50.229      41.0      -17.0         3           0      ! Connections 1B to 2C
   42    -30.311      52.5      -17.0         3           0
   43    -10.392      64.0      -17.0         3           0
   44    -55.426      38.0        8.0         3           0
   45     -5.196      67.0        8.0         3           0
   46      0.000     -58.0      -17.0         3           0      ! Connections 2A to 2B
   47      0.000     -35.0      -17.0         3           0
   48      0.000     -12.0      -17.0         3           0
   49      0.000     -64.0        8.0         3           0
   50      0.000      -6.0        8.0         3           0
   51      0.000      58.0      -17.0         3           0      ! Connections 2B to 2C
   52      0.000      35.0      -17.0         3           0
   53      0.000      12.0      -17.0         3           0
   54      0.000      64.0        8.0         3           0
   55      0.000       6.0        8.0         3           0
---------------- CYLINDRICAL MEMBER CROSS-SECTION PROPERTIES -------------------
             3   NPropSetsCyl    - Number of cylindrical member property sets (-)
PropSetID    PropD         PropThck
   (-)        (m)            (m)
    1       24.00000        0.06000          ! Base Columns
    2       12.00000        0.06000          ! Upper Columns
    3        2.00000        0.05000          ! Pontoons and braces
---------------- RECTANGULAR MEMBER CROSS-SECTION PROPERTIES -------------------
             0   NPropSetsRec    - Number of rectangular member property sets (-)
MPropSetID   PropA      PropB    PropThck
   (-)        (m)        (m)       (m)
-------- SIMPLE CYLINDRICAL-MEMBER HYDRODYNAMIC COEFFICIENTS (model 1) ---------
     SimplCd    SimplCdMG    SimplCa    SimplCaMG    SimplCp    SimplCpMG   SimplAxCd  SimplAxCdMG   SimplAxCa  SimplAxCaMG  SimplAxCp   SimplAxCpMG    SimplCb    SimplCbMG
       (-)         (-)         (-)         (-)         (-)         (-)         (-)         (-)         (-)         (-)         (-)         (-)            (-)         (-)
       0.6         0.6         1.0         1.0         1.0         1.0         0.0         0.0         0.0         0.0         0.0         0.0            1.0         1.0
-------- SIMPLE RECTANGULAR-MEMBER HYDRODYNAMIC COEFFICIENTS (model 1) ---------
     SimplCdA    SimplCdAMG    SimplCdB    SimplCdBMG    SimplCaA    SimplCaAMG    SimplCaB    SimplCaBMG    SimplCp    SimplCpMG   SimplAxCd  SimplAxCdMG   SimplAxCa  SimplAxCaMG  SimplAxCp   SimplAxCpMG  SimplCb  SimplCbMG
       (-)         (-)           (-)         (-)           (-)         (-)           (-)         (-)           (-)         (-)         (-)         (-)          (-)         (-)         (-)         (-)          (-)       (-)
       0.0         0.0           0.0         0.0           0.0         0.0           0.0         0.0           0.0         0.0         0.0         0.0          0.0         0.0         0.0         0.0          1.0       1.0
------ DEPTH-BASED CYLINDRICAL-MEMBER HYDRODYNAMIC COEFFICIENTS (model 2) -------
             4   NCoefDpthCyl    - Number of depth-dependent cylindrical member coefficients (-)
Dpth    DpthCd   DpthCdMG   DpthCa    DpthCaMG    DpthCp    DpthCpMG   DpthAxCd  DpthAxCdMG  DpthAxCa  DpthAxCaMG  DpthAxCp   DpthAxCpMG  DpthCb    DpthCbMG
(m)       (-)      (-)        (-)        (-)        (-)        (-)        (-)        (-)        (-)        (-)        (-)        (-)        (-)        (-)
 999      1.5      1.5        1.0        1.0        1.0        1.0        0.0        0.0        0.0        0.0        0.0        0.0        1.0        1.0
-3.0      1.5      1.5        1.0        1.0        1.0        1.0        0.0        0.0        0.0        0.0        0.0        0.0        1.0        1.0
-3.5      0.5      0.5        1.0        1.0        1.0        1.0        0.0        0.0        0.0        0.0        0.0        0.0        1.0        1.0
-999      0.5      0.5        1.0        1.0        1.0        1.0        0.0        0.0        0.0        0.0        0.0        0.0        1.0        1.0
------ DEPTH-BASED RECTANGULAR-MEMBER HYDRODYNAMIC COEFFICIENTS (model 2) -------
             0   NCoefDpthRec    - Number of depth-dependent rectangular member coefficients (-)
Dpth    DpthCdA   DpthCdAMG    DpthCdB   DpthCdBMG   DpthCaA   DpthCaAMG   DpthCaB   DpthCaBMG     DpthCp   DpthCpMG   DpthAxCd   DpthAxCdMG   DpthAxCa   DpthAxCaMG   DpthAxCp   DpthAxCpMG   DpthCb   DpthCbMG
(m)       (-)       (-)          (-)       (-)         (-)       (-)        (-)        (-)          (-)        (-)       (-)        (-)          (-)        (-)          (-)        (-)          (-)      (-)
------ MEMBER-BASED CYLINDRICAL-MEMBER HYDRODYNAMIC COEFFICIENTS (model 3) ------
             5   NCoefMembersCyl - Number of member-based cylindrical member coefficients (-)
MemberID    MemberCd1     MemberCd2    MemberCdMG1   MemberCdMG2    MemberCa1     MemberCa2    MemberCaMG1   MemberCaMG2    MemberCp1     MemberCp2    MemberCpMG1   MemberCpMG2   MemberAxCd1   MemberAxCd2  MemberAxCdMG1 MemberAxCdMG2  MemberAxCa1   MemberAxCa2  MemberAxCaMG1 MemberAxCaMG2  MemberAxCp1  MemberAxCp2   MemberAxCpMG1   MemberAxCpMG2    MemberCb1     MemberCb2    MemberCbMG1   MemberCbMG2
   (-)         (-)           (-)           (-)           (-)           (-)           (-)           (-)           (-)           (-)           (-)           (-)           (-)           (-)           (-)           (-)           (-)           (-)           (-)           (-)           (-)           (-)           (-)           (-)           (-)              (-)           (-)           (-)           (-)
    1          1.0           1.0           1.0           1.0           1.0           1.0           1.0           1.0           1.0           1.0           1.0           1.0           0.0           0.0           0.0           0.0           0.0           0.0           0.0           0.0           0.0           0.0           0.0           0.0              1.0           1.0           1.0           1.0     ! Base columns
    3          1.0           1.0           1.0           1.0           1.0           1.0           1.0           1.0           1.0           1.0           1.0           1.0           0.0           0.0           0.0           0.0           0.0           0.0           0.0           0.0           0.0           0.0           0.0           0.0              1.0           1.0           1.0           1.0
    5          1.0           1.0           1.0           1.0           1.0           1.0           1.0           1.0           1.0           1.0           1.0           1.0           0.0           0.0           0.0           0.0           0.0           0.0           0.0           0.0           0.0           0.0           0.0           0.0              1.0           1.0           1.0           1.0
    7          1.0           1.0           1.0           1.0           1.0           1.0           1.0           1.0           1.0           1.0           1.0           1.0           0.0           0.0           0.0           0.0           0.0           0.0           0.0           0.0           0.0           0.0           0.0           0.0              1.0           1.0           1.0           1.0
    9          1.0           1.0           1.0           1.0           1.0           1.0           1.0           1.0           1.0           1.0           1.0           1.0           0.0           0.0           0.0           0.0           0.0           0.0           0.0           0.0           0.0           0.0           0.0           0.0              1.0           1.0           1.0           1.0
------ MEMBER-BASED RECTANGULAR-MEMBER HYDRODYNAMIC COEFFICIENTS (model 3) ------
            0   NCoefMembersRec - Number of member-based rectangular member coefficients (-)
MemberID    MemberCdA1     MemberCdA2    MemberCdAMG1   MemberCdAMG2    MemberCdB1     MemberCdB2    MemberCdBMG1   MemberCdBMG2    MemberCaA1     MemberCaA2    MemberCaAMG1   MemberCaAMG2    MemberCaB1     MemberCaB2    MemberCaBMG1   MemberCaBMG2    MemberCp1     MemberCp2    MemberCpMG1   MemberCpMG2   MemberAxCd1   MemberAxCd2  MemberAxCdMG1 MemberAxCdMG2  MemberAxCa1   MemberAxCa2  MemberAxCaMG1 MemberAxCaMG2  MemberAxCp1  MemberAxCp2   MemberAxCpMG1   MemberAxCpMG2   MemberCb1     MemberCb2    MemberCbMG1   MemberCbMG2
   (-)         (-)            (-)           (-)            (-)             (-)            (-)           (-)            (-)             (-)            (-)           (-)            (-)             (-)            (-)           (-)            (-)             (-)           (-)          (-)           (-)           (-)           (-)          (-)           (-)            (-)           (-)          (-)           (-)              (-)           (-)          (-)           (-)            (-)           (-)          (-)           (-)
-------------------- MEMBERS -------------------------------------------------
            45   NMembers       - Number of members (-)
MemberID  MJointID1  MJointID2  MPropSetID1  MPropSetID2  MSecGeom    MSpinOrient   MDivSize   MCoefMod  MHstLMod  PropPot   [MCoefMod=1: use simple coeff table, 2: use depth-based coeff table, 3: use member-based coeff table] [ PropPot/=0 if member is modeled with potential-flow theory]
  (-)        (-)        (-)         (-)          (-)      (switch)       (deg)        (m)      (switch)  (switch)  (flag)
   1          1          2           1            1           1            0         5.0000        3         1      TRUE      ! Column 1A - Upper column
   2          3          4           2            2           1            0         5.0000        2         1      TRUE      !           - Base  column
   3          5          6           1            1           1            0         5.0000        3         1      TRUE      ! Column 1B - Upper column
   4          7          8           2            2           1            0         5.0000        2         1      TRUE      !           - Base  column
   5          9         10           1            1           1            0         5.0000        3         1      TRUE      ! Column 2A - Upper column
   6         11         12           2            2           1            0         5.0000        2         1      TRUE      !           - Base  column
   7         13         14           1            1           1            0         5.0000        3         1      TRUE      ! Column 2B - Upper column
   8         15         16           2            2           1            0         5.0000        2         1      TRUE      !           - Base  column
   9         17         18           1            1           1            0         5.0000        3         1      TRUE      ! Column 2C - Upper column
  10         19         20           2            2           1            0         5.0000        2         1      TRUE      !           - Base  column
  11         21         22           3            3           1            0         5.0000        1         2      FALSE     ! Connections 1A to 1B
  12         22         23           3            3           1            0         5.0000        1         2      FALSE
  13         24         22           3            3           1            0         5.0000        1         2      FALSE
  14         25         22           3            3           1            0         5.0000        1         2      FALSE
  15         24         25           3            3           1            0         5.0000        1         2      FALSE
  16         26         27           3            3           1            0         5.0000        1         2      FALSE     ! Connections 1A to 2A
  17         27         28           3            3           1            0         5.0000        1         2      FALSE
  18         29         27           3            3           1            0         5.0000        1         2      FALSE
  19         30         27           3            3           1            0         5.0000        1         2      FALSE
  20         29         30           3            3           1            0         5.0000        1         2      FALSE
  21         31         32           3            3           1            0         5.0000        1         2      FALSE     ! Connections 1A to 2B
  22         32         33           3            3           1            0         5.0000        1         2      FALSE