Example user wave component file in OpenFAST format
0.40,0.00050470,-100.00000000,-134.29086011
0.41,0.00113693,-130.00000000,168.01842185
0.42,0.00231934,-120.00000000,-86.22863789
0.43,0.00434478,-150.00000000,143.00514877
0.44,0.00755839,-110.00000000,-44.37010217
0.45,0.01233022,-130.00000000,-58.96017204
0.46,0.01901350,-130.00000000,-17.50447063
0.47,0.02791516,-120.00000000,122.49182997
0.48,0.03925748,-140.00000000,-135.68322806
0.49,0.05316112,-150.00000000,15.48943274
0.50,0.06961751,-110.00000000,-45.71559892
0.51,0.08852499,-150.00000000,-18.72114311
0.52,0.10966497,-130.00000000,-133.40135530
0.53,0.13274773,-150.00000000,129.55633437
0.54,0.15741953,-130.00000000,115.33981072
0.55,0.18327005,-100.00000000,-53.26072591
0.56,0.20991641,-100.00000000,-97.60057044
0.57,0.23696737,-110.00000000,99.64215018
0.58,0.26403731,-110.00000000,34.12209221
0.59,0.29083756,-120.00000000,-130.48071964
0.60,0.31712763,-130.00000000,127.04392114
0.61,0.34276621,-150.00000000,-95.21730776
0.62,0.36772289,-150.00000000,-127.35819627
0.63,0.39214918,-100.00000000,32.35275829
0.64,0.41634986,-150.00000000,26.64423898
0.65,0.44084446,-120.00000000,-157.94281355
0.66,0.46636409,-120.00000000,32.55336120
0.67,0.49383876,-130.00000000,-91.67406509
0.68,0.52434679,-150.00000000,-57.43982252
0.69,0.55902023,-100.00000000,174.50234620
0.70,0.59888939,-110.00000000,151.03454578
0.71,0.64463776,-150.00000000,-166.40219249
0.72,0.69629531,-120.00000000,130.15774430
0.73,0.75285316,-150.00000000,91.28478432
0.74,0.81192425,-130.00000000,-34.13564819
0.75,0.86958126,-100.00000000,-56.33068490
0.76,0.92059856,-150.00000000,-118.46981805
0.77,0.95921515,-140.00000000,-37.92275649
0.78,0.98041984,-120.00000000,50.99982130
0.79,0.98206656,-120.00000000,-81.14672499
0.80,0.96955377,-130.00000000,-13.55243965
