------- ELASTODYN for OpenFAST INPUT FILE -------------------------------------------
FAST certification Test #13: WindPACT 1.5 MW Baseline with many DOFs with VS and VP and FF turbulence. Model properties from "InputData1.5A08V07adm.xls" (from C. Hansen) with bugs removed.
---------------------- SIMULATION CONTROL --------------------------------------
False         Echo        - Echo input data to "<RootName>.ech" (flag)
          3   Method      - Integration method: {1: RK4, 2: AB4, or 3: ABM4} (-)
      0.005   DT          - Integration time step (s)
---------------------- DEGREES OF FREEDOM --------------------------------------
True          FlapDOF1    - First flapwise blade mode DOF (flag)
True          FlapDOF2    - Second flapwise blade mode DOF (flag)
True          EdgeDOF     - First edgewise blade mode DOF (flag)
False         TeetDOF     - Rotor-teeter DOF (flag) [unused for 3 blades]
True          DrTrDOF     - Drivetrain rotational-flexibility DOF (flag)
True          GenDOF      - Generator DOF (flag)
False         YawDOF      - Yaw DOF (flag)
True          TwFADOF1    - First fore-aft tower bending-mode DOF (flag)
True          TwFADOF2    - Second fore-aft tower bending-mode DOF (flag)
True          TwSSDOF1    - First side-to-side tower bending-mode DOF (flag)
True          TwSSDOF2    - Second side-to-side tower bending-mode DOF (flag)
False         PtfmSgDOF   - Platform horizontal surge translation DOF (flag)
False         PtfmSwDOF   - Platform horizontal sway translation DOF (flag)
False         PtfmHvDOF   - Platform vertical heave translation DOF (flag)
False         PtfmRDOF    - Platform roll tilt rotation DOF (flag)
False         PtfmPDOF    - Platform pitch tilt rotation DOF (flag)
False         PtfmYDOF    - Platform yaw rotation DOF (flag)
---------------------- INITIAL CONDITIONS --------------------------------------
          0   OoPDefl     - Initial out-of-plane blade-tip displacement (meters)
          0   IPDefl      - Initial in-plane blade-tip deflection (meters)
        7.5   BlPitch(1)  - Blade 1 initial pitch (degrees)
        7.5   BlPitch(2)  - Blade 2 initial pitch (degrees)
        7.5   BlPitch(3)  - Blade 3 initial pitch (degrees) [unused for 2 blades]
          0   TeetDefl    - Initial or fixed teeter angle (degrees) [unused for 3 blades]
          0   Azimuth     - Initial azimuth angle for blade 1 (degrees)
         20   RotSpeed    - Initial or fixed rotor speed (rpm)
          0   NacYaw      - Initial or fixed nacelle-yaw angle (degrees)
          0   TTDspFA     - Initial fore-aft tower-top displacement (meters)
          0   TTDspSS     - Initial side-to-side tower-top displacement (meters)
          0   PtfmSurge   - Initial or fixed horizontal surge translational displacement of platform (meters)
          0   PtfmSway    - Initial or fixed horizontal sway translational displacement of platform (meters)
          0   PtfmHeave   - Initial or fixed vertical heave translational displacement of platform (meters)
          0   PtfmRoll    - Initial or fixed roll tilt rotational displacement of platform (degrees)
          0   PtfmPitch   - Initial or fixed pitch tilt rotational displacement of platform (degrees)
          0   PtfmYaw     - Initial or fixed yaw rotational displacement of platform (degrees)
---------------------- TURBINE CONFIGURATION -----------------------------------
          3   NumBl       - Number of blades (-)
         35   TipRad      - The distance from the rotor apex to the blade tip (meters)
       1.75   HubRad      - The distance from the rotor apex to the blade root (meters)
          0   PreCone(1)  - Blade 1 cone angle (degrees)
          0   PreCone(2)  - Blade 2 cone angle (degrees)
          0   PreCone(3)  - Blade 3 cone angle (degrees) [unused for 2 blades]
          0   HubCM       - Distance from rotor apex to hub mass [positive downwind] (meters)
          0   UndSling    - Undersling length [distance from teeter pin to the rotor apex] (meters) [unused for 3 blades]
          0   Delta3      - Delta-3 angle for teetering rotors (degrees) [unused for 3 blades]
          0   AzimB1Up    - Azimuth value to use for I/O when blade 1 points up (degrees)
       -3.3   OverHang    - Distance from yaw axis to rotor apex [3 blades] or teeter pin [2 blades] (meters)
       0.99   ShftGagL    - Distance from rotor apex [3 blades] or teeter pin [2 blades] to shaft strain gages [positive for upwind rotors] (meters)
         -5   ShftTilt    - Rotor shaft tilt angle (degrees)
    -0.1449   NacCMxn     - Downwind distance from the tower-top to the nacelle CM (meters)
          0   NacCMyn     - Lateral  distance from the tower-top to the nacelle CM (meters)
      1.389   NacCMzn     - Vertical distance from the tower-top to the nacelle CM (meters)
          0   NcIMUxn     - Downwind distance from the tower-top to the nacelle IMU (meters)
          0   NcIMUyn     - Lateral  distance from the tower-top to the nacelle IMU (meters)
          0   NcIMUzn     - Vertical distance from the tower-top to the nacelle IMU (meters)
       1.61   Twr2Shft    - Vertical distance from the tower-top to the rotor shaft (meters)
      82.39   TowerHt     - Height of tower relative to ground level [onshore], MSL [offshore wind or floating MHK], or seabed [fixed MHK] (meters)
          0   TowerBsHt   - Height of tower base relative to ground level [onshore], MSL [offshore wind or floating MHK], or seabed [fixed MHK] (meters)
          0   PtfmCMxt    - Downwind distance from the ground level [onshore], MSL [offshore wind or floating MHK], or seabed [fixed MHK] to the platform CM (meters)
          0   PtfmCMyt    - Lateral distance from the ground level [onshore], MSL [offshore wind or floating MHK], or seabed [fixed MHK] to the platform CM (meters)
         -0   PtfmCMzt    - Vertical distance from the ground level [onshore], MSL [offshore wind or floating MHK], or seabed [fixed MHK] to the platform CM (meters)
          0   PtfmRefxt   - Downwind distance from the ground level [onshore], MSL [offshore wind or floating MHK], or seabed [fixed MHK] to the platform reference point (meters)
          0   PtfmRefyt   - Lateral distance from the ground level [onshore], MSL [offshore wind or floating MHK], or seabed [fixed MHK] to the platform reference point (meters)
         -0   PtfmRefzt   - Vertical distance from the ground level [onshore], MSL [offshore wind or floating MHK], or seabed [fixed MHK] to the platform reference point (meters)
---------------------- MASS AND INERTIA ----------------------------------------
          0   TipMass(1)  - Tip-brake mass, blade 1 (kg)
          0   TipMass(2)  - Tip-brake mass, blade 2 (kg)
          0   TipMass(3)  - Tip-brake mass, blade 3 (kg) [unused for 2 blades]
      15148   HubMass     - Hub mass (kg)
      34600   HubIner     - Hub inertia about rotor axis [3 blades] or teeter axis [2 blades] (kg m^2)
     53.036   GenIner     - Generator inertia about HSS (kg m^2)
      51170   NacMass     - Nacelle mass (kg)
      49130   NacYIner    - Nacelle inertia about yaw axis (kg m^2)
          0   YawBrMass   - Yaw bearing mass (kg)
          0   PtfmMass    - Platform mass (kg)
          0   PtfmRIner   - Platform inertia for roll tilt rotation about the platform CM (kg m^2)
          0   PtfmPIner   - Platform inertia for pitch tilt rotation about the platform CM (kg m^2)
          0   PtfmYIner   - Platform inertia for yaw rotation about the platform CM (kg m^2)
          0   PtfmXYIner  - Platform xy moment of inertia about the platform CM (=-int(xydm)) (kg m^2)
          0   PtfmYZIner  - Platform yz moment of inertia about the platform CM (=-int(yzdm)) (kg m^2)
          0   PtfmXZIner  - Platform xz moment of inertia about the platform CM (=-int(xzdm)) (kg m^2)
---------------------- BLADE ---------------------------------------------------
         15   BldNodes    - Number of blade nodes (per blade) used for analysis (-)
"../WP_Baseline/Baseline_Blade.dat"    BldFile(1)  - Name of file containing properties for blade 1 (quoted string)
"../WP_Baseline/Baseline_Blade.dat"    BldFile(2)  - Name of file containing properties for blade 2 (quoted string)
"../WP_Baseline/Baseline_Blade.dat"    BldFile(3)  - Name of file containing properties for blade 3 (quoted string) [unused for 2 blades]
---------------------- ROTOR-TEETER --------------------------------------------
          0   TeetMod     - Rotor-teeter spring/damper model {0: none, 1: standard, 2: user-defined from routine UserTeet} (switch) [unused for 3 blades]
          0   TeetDmpP    - Rotor-teeter damper position (degrees) [used only for 2 blades and when TeetMod=1]
          0   TeetDmp     - Rotor-teeter damping constant (N-m/(rad/s)) [used only for 2 blades and when TeetMod=1]
          0   TeetCDmp    - Rotor-teeter rate-independent Coulomb-damping moment (N-m) [used only for 2 blades and when TeetMod=1]
          0   TeetSStP    - Rotor-teeter soft-stop position (degrees) [used only for 2 blades and when TeetMod=1]
          0   TeetHStP    - Rotor-teeter hard-stop position (degrees) [used only for 2 blades and when TeetMod=1]
          0   TeetSSSp    - Rotor-teeter soft-stop linear-spring constant (N-m/rad) [used only for 2 blades and when TeetMod=1]
          0   TeetHSSp    - Rotor-teeter hard-stop linear-spring constant (N-m/rad) [used only for 2 blades and when TeetMod=1]
---------------------- YAW-FRICTION --------------------------------------------
          0   YawFrctMod  - Yaw-friction model {0: none, 1: friction independent of yaw-bearing force and bending moment, 2: friction with Coulomb terms depending on yaw-bearing force and bending moment, 3: user defined model} (switch)
        300   M_CSmax     - Maximum static Coulomb friction torque (N-m) [M_CSmax when YawFrctMod=1; |Fz|*M_CSmax when YawFrctMod=2 and Fz<0]
          0   M_FCSmax    - Maximum static Coulomb friction torque proportional to yaw bearing shear force (N-m) [sqrt(Fx^2+Fy^2)*M_FCSmax; only used when YawFrctMod=2]
          0   M_MCSmax    - Maximum static Coulomb friction torque proportional to yaw bearing bending moment (N-m) [sqrt(Mx^2+My^2)*M_MCSmax; only used when YawFrctMod=2]
         40   M_CD        - Dynamic Coulomb friction moment (N-m) [M_CD when YawFrctMod=1; |Fz|*M_CD when YawFrctMod=2 and Fz<0]
          0   M_FCD       - Dynamic Coulomb friction moment proportional to yaw bearing shear force (N-m) [sqrt(Fx^2+Fy^2)*M_FCD; only used when YawFrctMod=2]
          0   M_MCD       - Dynamic Coulomb friction moment proportional to yaw bearing bending moment (N-m) [sqrt(Mx^2+My^2)*M_MCD; only used when YawFrctMod=2]
          0   sig_v       - Linear viscous friction coefficient (N-m/(rad/s))
          0   sig_v2      - Quadratic viscous friction coefficient (N-m/(rad/s)^2)
          0   OmgCut      - Yaw angular velocity cutoff below which viscous friction is linearized (rad/s)
---------------------- DRIVETRAIN ----------------------------------------------
        100   GBoxEff     - Gearbox efficiency (%)
     87.965   GBRatio     - Gearbox ratio (-)
    5.6E+09   DTTorSpr    - Drivetrain torsional spring (N-m/rad)
   10000000   DTTorDmp    - Drivetrain torsional damper (N-m/(rad/s))
---------------------- FURLING -------------------------------------------------
False         Furling     - Read in additional model properties for furling turbine (flag) [must currently be FALSE)
"unused"      FurlFile    - Name of file containing furling properties (quoted string) [unused when Furling=False]
---------------------- TOWER ---------------------------------------------------
         10   TwrNodes    - Number of tower nodes used for analysis (-)
"../WP_Baseline/Baseline_Tower.dat"    TwrFile     - Name of file containing tower properties (quoted string)
---------------------- OUTPUT --------------------------------------------------
True          SumPrint    - Print summary data to "<RootName>.sum" (flag)
          1   OutFile     - Switch to determine where output will be placed: {1: in module output file only; 2: in glue code output file only; 3: both} (currently unused)
True          TabDelim    - Use tab delimiters in text tabular output file? (flag) (currently unused)
"G0"          OutFmt      - Format used for text tabular output (except time).  Resulting field should be 10 characters. (quoted string) (currently unused)
          0   TStart      - Time to begin tabular output (s) (currently unused)
         10   DecFact     - Decimation factor for tabular output {1: output every time step} (-) (currently unused)
          2   NTwGages    - Number of tower nodes that have strain gages for output [0 to 9] (-)
          4,          7    TwrGagNd    - List of tower nodes that have strain gages [1 to TwrNodes] (-) [unused if NTwGages=0]
          0   NBlGages    - Number of blade nodes that have strain gages for output [0 to 9] (-)
          0   BldGagNd    - List of blade nodes that have strain gages [1 to BldNodes] (-) [unused if NBlGages=0]
              OutList     - The next line(s) contains a list of output parameters.  See OutListParameters.xlsx for a listing of available output channels, (-)
"BldPitch2"               - Blade 2 pitch angle
"IPDefl1"                 - IP blade 1,2 tip deflections
"IPDefl2"                 - IP blade 1,2 tip deflections
"TwstDefl1"               - Blade torsional tip twist deflections
"TwstDefl2"               - Blade torsional tip twist deflections
"TwstDefl3"               - Blade torsional tip twist deflections
"RootMxb2"                - Blade 2 root moments
"RootMyb2"                - Blade 2 root moments
"RootMzb2"                - Blade 2 root moments
"LSShftFys"               - Non-rotating LSS shear forces
"LSShftFzs"               - Non-rotating LSS shear forces
"LSSTipMys"               - Non-rotating LSS bending moments at the shaft tip
"LSSTipMzs"               - Non-rotating LSS bending moments at the shaft tip
"YawBrTDxp"               - FA and SS tower-top deflections wrt tilted tower
"YawBrTDyp"               - FA and SS tower-top deflections wrt tilted tower
"YawBrMxn"                - Tower-top / yaw bearing roll, pitch, and yaw moments
"YawBrMyn"                - Tower-top / yaw bearing roll, pitch, and yaw moments
"YawBrMzn"                - Tower-top / yaw bearing roll, pitch, and yaw moments
END of OutList section (the word "END" must appear in the first 3 columns of the last OutList line)
====== Outputs for all blade stations (same ending as above for Spn1.... =========================== [optional section]
          1   BldNd_BladesOut     - Number of blades to output all node information at.  Up to number of blades on turbine. (-)
"All"         BldNd_BlOutNd       - Future feature will allow selecting a portion of the nodes to output.  Not implemented yet. (-)
                  OutList             - The next line(s) contains a list of output parameters.  See OutListParameters.xlsx for a listing of available output channels, (-)
END (the word "END" must appear in the first 3 columns of this last OutList line in the optional nodal output section)
----------------------------------------------------------------

