Example user wave component file in OpenFAST format
0.400000,0.00045717,-100.00000000,-134.29086011
0.410000,0.00102969,-130.00000000,168.01842185
0.420000,0.00210089,-120.00000000,-86.22863789
0.430000,0.00393558,-150.00000000,143.00514877
0.440000,0.00684641,-110.00000000,-44.37010217
0.450000,0.01116759,-130.00000000,-58.96017204
0.460000,0.01722159,-130.00000000,-17.50447063
0.470000,0.02528492,-120.00000000,122.49182997
0.480000,0.03555890,-140.00000000,-135.68322806
0.490000,0.04814947,-150.00000000,15.48943274
0.500000,0.06305822,-110.00000000,-45.71559892
0.510000,0.08018408,-150.00000000,-18.72114311
0.520000,0.09933409,-130.00000000,-133.40135530
0.530000,0.12024052,-150.00000000,129.55633437
0.540000,0.14258173,-130.00000000,115.33981072
0.550000,0.16600423,-100.00000000,-53.26072591
0.560000,0.19014464,-100.00000000,-97.60057044
0.570000,0.21465073,-110.00000000,99.64215018
0.580000,0.23920196,-110.00000000,34.12209221
0.590000,0.26353062,-120.00000000,-130.48071964
0.600000,0.28744544,-130.00000000,127.04392114
0.610000,0.31085910,-150.00000000,-95.21730776
0.620000,0.33382085,-150.00000000,-127.35819627
0.630000,0.35655336,-100.00000000,32.35275829
0.640000,0.37949108,-150.00000000,26.64423898
0.650000,0.40331439,-120.00000000,-157.94281355
0.660000,0.42897215,-120.00000000,32.55336120
0.670000,0.45768258,-130.00000000,-91.67406509
0.680000,0.49089972,-150.00000000,-57.43982252
0.690000,0.53022633,-100.00000000,174.50234620
0.700000,0.57724456,-110.00000000,151.03454578
0.710000,0.63322498,-150.00000000,-166.40219249
0.720000,0.69867615,-120.00000000,130.15774430
0.730000,0.77273419,-150.00000000,91.28478432
0.740000,0.85249111,-130.00000000,-34.13564819
0.750000,0.93252272,-100.00000000,-56.33068490
0.760000,1.00502418,-150.00000000,-118.46981805
0.770000,1.06092578,-140.00000000,-37.92275649
0.780000,1.09198489,-120.00000000,50.99982130
0.790000,1.09443032,-120.00000000,-81.14672499
0.800000,1.07622894,-130.00000000,-13.55243965
