------- HydroDyn Driver Input File --------------------------------------------
NREL 5.0 MW offshore fixed-bottom HydroDyn input properties for the OC3 Tripod
FALSE         Echo                - Echo the input file data (flag)
---------------------- ENVIRONMENTAL CONDITIONS -------------------------------
    9.80665   Gravity             - Gravity (m/s^2)
       1025   WtrDens             - Water density (kg/m^3)
         45   WtrDpth             - Water depth (m)
          0   MSL2SWL             - Offset between still-water level and mean sea level (m) [positive upward]
---------------------- HYDRODYN -----------------------------------------------
"./hd_primary.inp"    HDInputFile       - Primary HydroDyn input file name (quoted string)
"SeaState.dat"    SeaStateInputFile       - Primary SeaState input file name (quoted string)
"./driver"    OutRootName       - The name which prefixes all HydroDyn generated files (quoted string)
FALSE         Linearize         - Flag to enable linearization
        500   NSteps            - Number of time steps in the simulations (-)   [10 seconds]
      0.025   TimeInterval      - TimeInterval for the simulation (sec)
---------------------- PRP INPUTS (Platform Reference Point) ------------------
          1   PRPInputsMod      - Model for the PRP (principal reference point) inputs {0: all inputs are zero for every timestep, 1: steadystate inputs, 2: read inputs from a file (InputsFile)} (switch)
          0   PtfmRefzt         - Vertical distance from the ground level to the platform reference point (m)
          0   PtfmYMod          - Model for large platform yaw offset {0: Static reference yaw offset based on PtfmRefY, 1: dynamic reference yaw offset based on low-pass filtering the PRP yaw motion with cutoff frequency PtfmYCutOff} (switch)
          0   PtfmRefY          - Constant or initial platform reference yaw offset (rad)
       0.01   PtfmYCutOff       - Cutoff frequency for the low-pass filtering of PRP yaw motion when PtfmYMod=1 [unused when PtfmYMod=0] (Hz)
""            PRPInputsFile     - Filename for the PRP HydroDyn input InputsMod = 2 (quoted string)
---------------------- PRP STEADY STATE INPUTS  -------------------------------
        0.1,        0.1,       -0.1,          0,          0,          0    uPRPInSteady         - PRP Steady-state (3) displacements and (3) rotations at the platform reference point (m, m, m, rad, rad, rad)
          0,          0,          0,          0,          0,          0    uDotPRPInSteady      - PRP Steady-state (3) translational and (3) rotational velocities at the platform reference point (m/s, rads/s)
          0,          0,          0,          0,          0,          0    uDotDotPRPInSteady   - PRP Steady-state (3) translational and (3) rotational accelerations at the platform reference point (m/s^2, rads/s^2)
