Example User Wave Component File in OpenFAST format.
3.751062,0.00507362,-163.02700486,-45.31540390
0.804248,0.01855666,-124.49693388,25.94433110
3.254690,0.00720502,-79.40416772,-59.78642705
1.979203,0.02352520,-129.14291633,127.97757199
2.739469,0.01098076,-148.42892311,-87.39439841
0.848230,0.02653540,-114.59850256,6.11489207
6.949203,0.00109148,-164.80759168,-162.65412367
1.319469,0.04883100,-143.78393901,-35.17588440
3.449469,0.00624292,-146.10432339,178.49927150
5.736548,0.00176196,-147.77168184,-87.35257249
6.892654,0.00111399,-11.45817530,-68.02384127
3.028495,0.00859922,-28.53120419,126.21859156
5.680000,0.00180607,-172.94269165,-52.14351384
4.027522,0.00425296,-124.36865026,163.68200996
1.306903,0.04932900,-156.88067834,92.68566364
3.129026,0.00793742,-34.22350829,-90.51415360
3.656814,0.00540374,-31.80602408,-124.68936721
3.732212,0.00513736,-119.69497821,167.37185816
1.218938,0.05218400,-164.46730863,-72.28206360
5.579469,0.00188838,-134.71925776,27.49263495
4.712389,0.00287744,-70.84948974,119.65077636
3.122743,0.00797670,-97.23298008,-96.46374735
5.013982,0.00246524,-185.67680769,-10.15676554
2.236814,0.01779952,-113.25878107,-173.76606715
2.356194,0.01575586,-98.60853782,47.59629159
6.433982,0.00132306,-84.94532568,66.92376230
5.912477,0.00163398,-168.25720674,-99.81096679
4.165752,0.00391088,-154.87962345,169.61899863
4.373097,0.00346584,-195.60839324,70.39359471
7.143982,0.00101864,-109.65493945,-159.24158704
5.491504,0.00196477,-107.94057626,-48.08720183
2.192832,0.01863950,-73.73261675,-6.00012862
6.679026,0.00120513,-244.31755674,-23.33548238
1.765575,0.03006080,-138.01132935,17.35821477
2.425310,0.01471292,-47.56555154,-166.92437812
1.709026,0.03211380,-122.91081449,69.04657093
1.413717,0.04474780,-133.85024750,24.78919089
3.374071,0.00659294,-131.22565500,131.30072721
4.329115,0.00355410,-134.98855433,13.75104438
3.216991,0.00741458,-117.51409998,-167.10715165
2.016902,0.02255540,-119.00108545,106.52087552
7.093716,0.00103677,-171.20643461,156.17110622
7.301061,0.00096477,-96.99984736,-111.98517402
7.451858,0.00091673,-113.22389422,-108.00655509
7.772300,0.00082518,-105.05423692,-48.11287034
6.704159,0.00119388,-172.53828344,131.39182749
0.992743,0.04703040,-68.63559842,-64.67261113
1.262920,0.05091980,-144.95707814,-163.28896091
1.910088,0.02543880,-109.22237695,-51.08165115
4.234867,0.00375412,-56.33911257,150.74462294
2.720619,0.01116600,-91.75371368,-65.96062025
6.452831,0.00131343,-204.35994372,-51.23136503
2.532124,0.01327492,-124.06841051,-84.84874692
1.533097,0.03935340,-114.12488168,65.83113179
3.926991,0.00452842,-124.47587704,131.37005510
4.096637,0.00407692,-171.15839834,108.11656298
7.847698,0.00080551,-102.60188936,-23.73867278
2.161416,0.01927114,-138.37724061,-76.86286117
1.790708,0.02919320,-132.31078341,-52.37894219
5.007699,0.00247296,-80.46944473,-131.95332613
4.957433,0.00253594,-146.36864951,167.39191168
5.070531,0.00239726,-149.45289113,-68.50856356
4.442212,0.00333318,-157.00352056,-75.69173544
7.363893,0.00094433,-113.75745645,-160.93123958
1.633628,0.03506720,-136.81122624,52.87231615
3.719646,0.00518048,-221.29617133,-4.15420758
3.160442,0.00774502,-155.87784389,42.60611567
0.753982,0.01026402,-105.65771877,134.58664016
2.978230,0.00895876,-129.55699676,3.67637223
7.332477,0.00095447,-126.27791899,59.49708336
5.372123,0.00207552,-21.25627006,-154.49635058
6.182654,0.00146149,-190.57246511,107.10529247
7.822566,0.00081200,-113.81663011,-104.10356659
6.873805,0.00112163,-184.64541110,126.78524682
3.487168,0.00607752,-170.93741621,109.46702451
2.092301,0.02076040,-127.37926035,-87.09130373
0.835664,0.02425420,-178.10712702,21.85329786
7.445575,0.00091866,-125.76952674,-107.75330774
2.186548,0.01876368,-104.92887606,111.86026922
4.875752,0.00264318,-94.07172050,82.08709035
2.494425,0.01376002,-51.81445007,-137.09390347
6.924070,0.00110140,-145.03155558,24.46661566
3.085044,0.00821800,-91.12477468,-22.15496013
4.454778,0.00330984,-179.20525690,-121.30490551
2.544690,0.01311834,-88.08316692,-72.70834420
0.936195,0.04069300,-126.57150712,59.49593745
7.250796,0.00098157,-129.30962485,-12.41479221
2.576106,0.01273760,-135.31251885,-21.48339630
4.159469,0.00392558,-135.65300684,-58.21480382
4.781504,0.00277492,-88.45594127,151.09813790
1.137257,0.05315180,-159.32707828,79.25037631
2.695486,0.01141966,-99.67293100,72.17893120
5.045398,0.00242714,-104.08089530,-3.94696301
7.860265,0.00080230,-138.49083785,100.58617868
6.804690,0.00115031,-191.41681868,55.62961824
3.003363,0.00877646,-114.31553824,108.84880305
6.013008,0.00156663,-44.25845306,144.41745001
5.592035,0.00187781,-106.84016975,62.12982443
2.224248,0.01803440,-164.14218807,3.44128765
5.742831,0.00175715,-170.33368145,72.81147661
4.944867,0.00255204,-145.79160683,-9.30156873
4.636991,0.00299540,-93.45391443,6.63508045
5.950176,0.00160826,-78.99930340,142.64815634
7.646637,0.00085949,-133.81078250,133.95695954
7.175398,0.00100754,-85.71341868,74.32523110
6.986902,0.00107682,-37.81236880,-178.29759035
5.686283,0.00180109,-120.61611376,-75.08841088
2.343628,0.01595592,-103.63231420,140.26293304
1.105841,0.05284240,-37.76636179,156.48795188
5.202477,0.00224850,-211.57507188,153.97667786
1.193805,0.05270580,-139.72843752,119.71953129
7.376460,0.00094032,-52.96659783,146.94190205
5.196194,0.00225528,-114.80618916,102.84707014
2.067168,0.02133800,-83.84666443,123.04784312
2.689203,0.01148430,-177.79366509,-126.73310766
5.434955,0.00201618,-52.72115135,178.59438249
2.104867,0.02047900,-76.69020441,-73.65544344
8.029911,0.00076061,-80.24506578,-119.98309188
2.469292,0.01409670,-146.85026251,-66.75359384
5.811946,0.00170546,-114.26395110,-124.16740266
7.156548,0.00101418,-126.62090845,81.70951116
2.211681,0.01827334,-61.14851182,-169.48721834
6.082123,0.00152256,-176.20231207,178.86424561
3.650531,0.00542680,-128.30287958,37.79315560
3.839026,0.00479026,-199.97503280,141.01350775
3.418053,0.00638556,-112.02160277,43.78446068
3.801327,0.00490894,-98.56539414,61.01828631
3.097610,0.00813646,-150.96891826,135.08110274
2.858849,0.00989954,-142.03376057,-149.62277158
7.357610,0.00094635,-68.66746425,-32.18515930
6.515663,0.00128203,-134.61246763,-158.13062188
2.481858,0.01392700,-175.46239328,108.89349375
1.338318,0.04805660,-150.63962079,-156.91480544
4.511327,0.00320752,-153.69210269,-106.40284622
2.098584,0.02061920,-101.71109389,-3.42852788
2.651504,0.01188274,-133.70164918,48.59467055
5.548053,0.00191518,-81.06885521,8.93189636
6.170088,0.00146893,-132.03359499,106.58676567
3.292389,0.00700354,-131.13292506,125.27664895
4.115486,0.00403068,-106.41406828,-150.47819757
1.966637,0.02385980,-132.51283111,106.15246366
5.868495,0.00166473,-140.69363172,64.28930236
5.994159,0.00157896,-132.91596319,131.04289620
5.969026,0.00159561,-66.15101432,161.43658836
3.386637,0.00653276,-124.76389590,101.05714999
1.156106,0.05313180,-217.65538989,95.24277428
7.231946,0.00098797,-174.81045935,-50.60758587
1.244071,0.05150920,-121.21860878,18.13445799
5.711415,0.00178138,-60.98699692,-1.49913261
5.504070,0.00195360,-225.72685693,43.75501064
4.178318,0.00388170,-169.01385439,-32.91986308
2.909115,0.00948766,-208.02445515,-49.06243329
3.430619,0.00632798,-126.16689964,-112.09460895
3.260973,0.00717088,-138.41373961,102.94791071
1.357168,0.04725540,-85.88312277,102.40245489
3.600265,0.00561628,-208.02138682,96.49697890
1.526814,0.03963220,-106.75621954,-118.27166694
5.849646,0.00167815,-110.98331856,-65.51944275
3.619115,0.00554416,-59.02923353,90.36747641
1.005310,0.04810660,-113.17019145,167.53744296
5.830796,0.00169173,-113.21704110,32.37916281
5.189911,0.00226210,-80.35188948,96.64422905
3.933274,0.00451050,-122.68975925,-15.77627830
2.871416,0.00979430,-164.38136598,-86.74638314
7.590088,0.00087558,-128.40958004,-97.57757730
1.627345,0.03532420,-132.13227245,-157.94842130
7.916813,0.00078806,-215.04557448,-56.91161131
4.643274,0.00298532,-182.17577052,92.06285852
0.948761,0.04231280,-110.45459070,108.01686833
0.986460,0.04644740,-135.58007334,12.90363980
4.674690,0.00293560,-181.41778034,-143.62734121
5.497787,0.00195917,-111.86053834,58.91266641
6.138672,0.00148778,-103.39824010,108.89349375
3.392920,0.00650294,-83.55640370,84.23568208
2.808584,0.01033624,-116.71388037,-45.05820315
4.561593,0.00312024,-93.25580845,138.85517573
6.534513,0.00127281,-70.74476754,175.08959966
5.114513,0.00234618,-226.62317286,80.73605587
2.902832,0.00953784,-72.69042715,143.17986117
2.375044,0.01546192,-165.02535231,-160.85045253
7.043451,0.00105536,-115.38649114,-2.99350967
7.319911,0.00095857,-81.96185050,-46.77306583
6.785840,0.00115831,-157.21432657,73.17301297
1.112124,0.05294160,-105.73108388,9.61096594
2.086018,0.02090300,-103.17886189,-2.71917175
1.250354,0.05132000,-140.18606418,-133.65443783
0.885929,0.03311080,-149.02578666,19.87997391
6.050707,0.00154237,-178.26514485,-50.61211224
4.926017,0.00257646,-75.25292032,-77.69021223
7.514690,0.00089769,-121.80153021,89.07602954
4.605575,0.00304656,-115.12191005,-96.17612253
7.960796,0.00077722,-139.30075748,72.00475203
2.173982,0.01901522,-54.25385210,-172.17782814
5.083097,0.00238250,-194.40575977,33.02798021
0.879646,0.03205580,-186.81972472,100.34610937
1.564513,0.03797660,-70.31860673,-137.74306465
3.267256,0.00713698,-190.06715378,112.66699379
4.253716,0.00371288,-202.61548595,-103.81995248
6.245486,0.00142505,-88.82719095,136.15654452
2.915398,0.00943784,-98.83017446,82.98262338
6.031858,0.00155444,-129.05152512,-168.11097371
3.248407,0.00723938,-156.81820364,166.09874594
6.000442,0.00157483,-167.26089829,-173.30941979
3.914424,0.00456460,-157.69003354,117.46666124
5.271592,0.00217568,-127.30521536,152.29046307
6.371150,0.00135589,-100.77196895,89.60143183
3.644247,0.00545000,-150.31623894,141.74517485
3.776194,0.00499034,-197.18742216,149.76028145
7.747167,0.00083189,-123.79943419,-179.87322429
4.134336,0.00398516,-158.06857545,-5.31323817
8.017344,0.00076359,-110.96045584,-37.50782262
0.973894,0.04519080,-224.10547222,-161.54888808
6.609911,0.00123686,-161.70110227,-107.25655333
7.225663,0.00099012,-102.97298070,-2.47170555
2.393894,0.01517524,-168.49351284,165.18774304
6.503097,0.00128822,-60.67656668,-88.89841262
7.546106,0.00088838,-91.46257875,161.78093599
6.239203,0.00142864,-162.22111689,-142.99193102
2.865133,0.00984672,-119.97655220,46.26892027
7.024601,0.00106245,-126.58687788,-178.51244952
2.752035,0.01085958,-184.95332943,-29.33108463
1.225221,0.05202840,-117.44064983,117.13721051
3.512301,0.00597060,-106.57251469,161.01489142
7.941946,0.00078184,-68.65671726,-102.29301995
5.208761,0.00224174,-80.87294499,-164.71791765
2.268230,0.01722950,-202.10058298,73.48126427
1.206372,0.05246580,-100.57588289,22.66271533
5.887345,0.00165145,-73.57008431,43.11484490
2.840000,0.01006028,-145.92889944,43.44441022
7.621504,0.00086659,-160.64102541,-59.08627262
1.181239,0.05289960,-106.88410394,-179.73514146
6.320884,0.00138298,-136.33399312,137.09791418
6.408849,0.00133606,-144.55902487,-152.08018756
6.075840,0.00152649,-139.94191826,-68.00951732
1.545664,0.03879920,-145.24762068,8.47645221
2.349911,0.01585546,-219.68311629,76.67206623
2.299646,0.01668316,-173.74606248,-7.77589672
6.094690,0.00151473,-105.17148122,162.49942507
7.131415,0.00102313,-124.10620165,-154.88252414
4.492477,0.00324112,-90.04303370,-152.08247939
5.020265,0.00245756,-225.45383318,166.11192396
1.639911,0.03481200,-48.17374788,-78.22650073
2.155133,0.01940076,-173.72045339,126.43631552
2.217964,0.01815336,-102.02554888,-24.58326986
7.056017,0.00105067,-139.05366210,97.70305506
4.102920,0.00406142,-136.42182720,-115.43839065
4.693539,0.00290632,-65.72556415,155.55746842
5.705132,0.00178628,-118.10710465,60.06946820
8.048760,0.00075617,-131.01673557,-85.85715264
6.044424,0.00154638,-227.82637995,-12.37159119
3.864159,0.00471334,-137.06202592,8.10460260
7.112566,0.00102992,-182.66787537,-44.20793378
1.294336,0.04980960,-139.96669486,-112.96149410
5.673716,0.00181107,-172.05929430,21.72879413
5.164778,0.00228966,-108.17285469,144.49479931
1.011593,0.04860060,-136.09740397,-57.47167756
6.302035,0.00139333,-184.33367369,41.44765231
1.658761,0.03405580,-144.96379817,-33.13248771
4.090354,0.00409250,-110.13368315,118.07285059
2.626371,0.01215882,-138.59714568,-176.98379813
4.398230,0.00341676,-168.53339508,112.15706135
5.541769,0.00192060,-101.02434173,-16.23991575
1.595929,0.03663220,-107.18510224,-22.00656407
2.770885,0.01068120,-160.11805227,50.61818559
4.046371,0.00420390,-132.51814442,-43.73123290
6.396283,0.00134263,-147.90693606,-63.51982004
1.646195,0.03455840,-166.94835457,-102.27010164
7.640353,0.00086125,-162.58781127,17.80729909
1.093274,0.05258380,-215.94984843,4.54245524
5.874778,0.00166029,-107.59019737,117.52452998
5.290442,0.00215640,3.86876507,98.73781683
3.361504,0.00665392,-110.87043558,153.57789924
1.614779,0.03584280,-92.82846782,-85.11861004
1.174956,0.05297780,-59.69853062,-103.66353500
7.068583,0.00104601,-177.67018291,26.14572577
7.753451,0.00083021,-152.32788500,-32.12075884
6.471681,0.00130390,-213.33135405,-145.00358583
5.918761,0.00162966,-90.98861880,29.67457283
3.204425,0.00748632,-152.04708631,99.66428959
5.937610,0.00161677,-127.48945665,131.70924611
5.604601,0.00186732,-222.81280735,-154.16689985
6.836106,0.00113715,-59.91295903,-55.58183356
5.862212,0.00166918,-89.84718945,-14.14535393
4.316548,0.00357990,-146.90443688,101.80887062
1.482832,0.04160780,4.05763976,4.94259177
2.877699,0.00974226,-186.58294084,-127.29517926
6.898937,0.00111145,-184.04361294,-140.94188802
2.959380,0.00909890,-90.86384186,125.67141687
7.803716,0.00081691,-84.79091524,-126.53028060
2.620088,0.01222920,-149.79838282,68.67357541
5.962743,0.00159981,-139.81417738,69.63156084
7.891681,0.00079434,-144.93720653,80.38024908
7.684336,0.00084899,-151.12292762,56.18034528
3.436902,0.00629944,-140.82408518,35.25369206
7.106283,0.00103220,-135.10613354,66.69056848
1.985487,0.02336000,-93.49952350,-20.79040385
7.596371,0.00087377,-82.31989018,68.95317881
2.243097,0.01768356,-114.10000128,77.92569788
7.709468,0.00084209,-120.48725272,-28.50253036
1.426283,0.04417860,-156.32690890,1.04483438
2.946814,0.00919402,-188.39249588,27.34418159
5.793097,0.00171934,-133.10398645,-36.80010515
5.252743,0.00219520,-166.28164430,-22.07222503
1.891239,0.02599260,-189.18899457,149.83992258
6.729291,0.00118277,-67.17038513,-131.86852838
3.669380,0.00535804,-106.38322667,-130.19319979
4.033805,0.00423652,-42.12932117,32.47444569
1.187522,0.05280860,-71.68603554,62.21290331
7.483274,0.00090714,-159.11849145,110.72695870
1.935221,0.02472200,-185.60409358,125.61297517
2.789734,0.01050680,-176.64904052,117.08564431
3.468318,0.00615946,-159.11514052,-22.91435840
4.812920,0.00273000,-195.59682165,110.93666125
4.197168,0.00383852,-122.29713096,153.45872402
1.507964,0.04047420,-174.92328291,83.16711579
1.231504,0.05186380,-186.58082811,134.55913819
4.806637,0.00273890,-111.08726752,-71.25131253
1.840973,0.02754000,-105.71046640,131.72357006
1.200088,0.05259140,-118.49343572,134.94301991
5.824513,0.00169628,-80.92144688,-173.86003223
7.181681,0.00100534,-108.88871968,71.50169509
1.470265,0.04217800,-116.48524104,-94.82566101
6.829822,0.00113976,-177.07594689,-120.55948742
4.379380,0.00345348,-182.05689115,74.47420013
3.336371,0.00677820,-144.67198085,-105.30906979
4.750088,0.00282088,-99.57847741,116.18094395
7.099999,0.00103448,-119.21332974,-12.72516345
2.852566,0.00995272,-105.32479785,62.30629543
1.847256,0.02734100,-125.51054774,-22.67440367
1.501681,0.04075660,-71.63293359,51.65988016
5.623451,0.00185174,-188.23222705,-98.66562415
1.778141,0.02962360,12.16536079,126.78983048
3.945840,0.00447492,-120.97201602,-139.71976905
7.690619,0.00084726,-165.51454391,39.01710805
2.632655,0.01208900,-149.03797246,-13.83257627
2.130000,0.01993056,-258.36464330,119.96762202
5.478938,0.00197604,-84.23413721,-128.67256980
7.816283,0.00081363,-104.44220255,-22.75100813
1.941504,0.02454660,-110.10515431,42.62576813
0.904779,0.03614560,-41.00870638,77.18772824
4.900885,0.00260952,-90.35621118,-75.38978668
1.463982,0.04246360,-38.12531047,-125.00048329
6.063274,0.00153440,-101.78235959,104.52354465
7.740884,0.00083358,-81.39189350,1.81774298
4.768938,0.00279318,-60.59586820,-70.35520654
3.022212,0.00864306,-82.44852867,-29.26800198
2.318495,0.01636624,-137.96419031,-86.55558819
3.462035,0.00618710,-118.18206267,146.39816511
2.054602,0.02163460,-152.65300443,-146.75225302
3.185575,0.00759570,-157.82315532,49.42906899
2.927964,0.00933926,-182.20452276,125.98081408
1.589646,0.03689820,-138.56466459,-12.41639649
6.553362,0.00126369,-119.82303009,-26.18239507
2.582389,0.01266324,-199.53038516,66.90084399
3.612832,0.00556806,-117.44428247,-118.85493798
3.989823,0.00435344,-117.44999472,19.49775377
1.677610,0.03331480,-117.30442426,133.58396402
3.179292,0.00763266,-100.31781240,-148.16459399
1.457699,0.04274940,-193.13287237,169.72786061
5.535486,0.00192605,-192.95206203,-163.27750175
4.882035,0.00263470,-98.54448501,-113.56309978
6.616194,0.00123392,-195.57820877,-71.28454408
0.929911,0.03983920,-127.48756349,-92.17057459
6.490530,0.00129446,-110.12081174,158.24922414
0.823097,0.02196240,-151.96175810,-157.58115535
6.817256,0.00114502,-149.93465439,-140.39414037
6.088407,0.00151864,-51.92102637,44.70188070
5.095663,0.00236788,-178.83190363,73.19134762
2.682920,0.01154944,-75.37904061,99.24488448
5.698849,0.00179120,-78.02532659,-77.78188548
2.381327,0.01536558,-178.68356822,-47.71374794
4.040088,0.00422016,-186.71628842,-142.35079124
4.680973,0.00292580,-97.18053437,-3.69902125
7.351327,0.00094837,-167.31956222,-98.58369119
6.521946,0.00127894,-106.49173143,0.70125450
6.622477,0.00123100,-133.45268246,-30.16032645
7.508406,0.00089957,-73.64384051,-78.03971649
6.540796,0.00126976,-76.15710074,-47.02172951
5.460088,0.00199310,-119.58826375,102.57548815
4.360531,0.00349074,-67.36931531,36.86055220
5.221327,0.00222830,-153.06249433,-129.58471861
4.567876,0.00310956,-79.54487057,115.53178277
3.066194,0.00834244,-204.28456276,-37.43677585
3.625398,0.00552042,-108.67153703,37.69328906
1.024159,0.04950240,-132.83625245,-29.06219554
6.006725,0.00157073,-105.28402011,-147.40943562
2.293363,0.01679058,-116.15641886,82.83823802
7.169114,0.00100975,-138.56026274,-49.20836564
1.834690,0.02774080,-183.69756145,89.59512930
1.495398,0.04103960,-151.76455121,-115.06424921
5.334424,0.00211232,-154.86822986,118.14447031
6.697876,0.00119668,-152.54894833,159.90793696
7.005752,0.00106960,-134.66065606,89.55273042
3.405486,0.00644388,-135.66907221,94.05216799
3.342655,0.00674682,-155.61202210,-80.08288398
2.029469,0.02224300,-63.25328815,22.75140920
1.746726,0.03072940,-151.10600482,-96.81611639
7.257079,0.00097944,-186.55166083,-169.50211524
7.219380,0.00099227,-133.85133376,35.54234820
1.332035,0.04831820,-41.05098338,-57.28008047
2.387610,0.01527000,-214.26597060,-90.56228206
5.786814,0.00172400,-159.78777353,-8.57523014
5.240177,0.00220836,-159.99324372,96.97539866
5.723982,0.00177163,-213.62104438,0.91707625
6.760707,0.00116909,-151.11028563,122.05662614
1.916372,0.02525720,-110.21912070,38.42650315
8.061327,0.00075323,-52.21810559,81.78972525
3.173009,0.00766986,-141.22183621,-97.55007533
1.784425,0.02940760,-133.90208998,-33.00150956
3.713363,0.00520222,-77.71208036,-54.97329509
2.733186,0.01104204,-117.18025470,-156.71255134
3.135309,0.00789842,-110.99821414,91.19368155
4.435929,0.00334496,-142.36145830,130.77188716
2.965663,0.00905186,-33.39217636,121.46533369
1.369734,0.04670940,-44.65463792,8.86021934
4.819203,0.00272114,-178.31297160,-95.36424134
4.347964,0.00351590,-135.17015197,86.09951379
2.802301,0.01039266,-136.66365911,156.91308656
6.584778,0.00124868,-81.63204244,73.24004904
6.113539,0.00150310,-148.84435384,122.49264702
5.767964,0.00173810,-95.11983552,12.43914292
6.942920,0.00109395,-183.80682629,-123.83164939
1.143540,0.05316100,-121.79533323,114.55890043
3.116460,0.00801622,-106.85777159,-31.53708673
1.149823,0.05315400,-183.11150850,-138.90731489
1.740442,0.03095580,-145.55583092,-130.73407195
1.074425,0.05203480,-82.30982616,79.32256899
5.522920,0.00193700,-29.85434817,-31.61970725
4.429646,0.00335678,-105.71134927,9.03193480
6.201504,0.00145042,-116.42118392,-105.29531880
2.708053,0.01129186,-61.80056713,12.99376606
3.675663,0.00533538,-109.73919073,-145.76046308
5.717699,0.00177649,-162.72105020,104.55906803
7.244513,0.00098369,-131.88534705,72.59146081
3.078761,0.00825920,-175.31032566,24.37339542
3.330088,0.00680978,-104.77349019,144.24842746
6.968053,0.00108412,-98.28474815,109.68589438
6.653893,0.00121654,-152.60725927,170.06361388
0.772832,0.01317594,-158.82602650,-167.75115622
4.913451,0.00259292,-76.13735664,37.57354088
4.498761,0.00322986,-223.63753959,86.81055441
3.631681,0.00549680,-84.98977075,76.65946116
4.391947,0.00342894,-157.51360325,4.89362107
7.935663,0.00078339,-44.61563516,-136.61090005
7.389026,0.00093633,-96.17052275,155.09279965
5.453805,0.00199884,-170.96605728,-64.40561279
4.951150,0.00254398,-166.25403002,-117.45921279
2.488141,0.01384318,-88.08380637,84.74160382
6.477964,0.00130074,-183.73235382,-110.24624711
4.310265,0.00359290,-111.61119999,146.94247501
6.195221,0.00145410,-124.20813477,67.80611731
1.407434,0.04503160,-180.61958962,154.62526609
1.897522,0.02580660,-95.10679903,102.60356308
3.970973,0.00440494,-134.23860687,-113.44335160
7.835132,0.00080875,-126.33068947,66.49805466
6.936637,0.00109642,-127.20684421,-22.19564014
5.642300,0.00183634,-91.45468249,-145.05801682
1.803274,0.02876980,-134.80937051,-60.40579443
3.537433,0.00586628,-83.82584521,9.41335280
7.502123,0.00090146,-178.86409344,-162.88158792
7.608937,0.00087017,-125.18096703,-32.91264381
7.162831,0.00101196,-173.71450900,67.69209871
1.734159,0.03118400,-189.44396819,-99.33369294
2.833717,0.01011466,-95.56131009,140.09620232
1.759292,0.03028200,-37.11669226,-71.72400271
1.061858,0.05155360,-108.58107135,39.83660958
6.126106,0.00149541,-147.53718088,122.77626113
7.426725,0.00092450,-115.96372858,126.56465807
4.335398,0.00354130,-130.28638158,120.21571274
4.404513,0.00340464,-66.85803104,164.79354808
4.586725,0.00307782,-100.81740720,-100.36558993
4.706106,0.00288702,-116.83513228,29.95062390
6.333451,0.00137614,-74.53502776,-82.91386845
5.152212,0.00230360,-49.03102268,-100.77181701
1.960354,0.02402920,-111.31599431,2.45702637
4.247433,0.00372656,-154.55840907,-104.79512665
2.073451,0.02119180,-58.55961102,77.94460549
5.447522,0.00200460,-117.10316423,174.79739118
2.111150,0.02034020,-93.16748304,49.89333669
6.364867,0.00135924,-78.97999394,35.99469838
4.128053,0.00400026,-147.88991277,54.88030404
2.324779,0.01626236,-184.27925512,174.55674891
6.352300,0.00136596,-136.73795038,-127.93116241
1.432566,0.04389320,-52.33788807,15.11680388
3.166725,0.00770732,-139.14353897,71.90677625
3.832743,0.00480976,-133.15258120,49.20916778
5.466371,0.00198739,-165.63973386,65.90962701
5.925044,0.00162535,-82.61050921,93.67115105
5.931327,0.00162105,-133.23089917,71.62316214
5.365840,0.00208160,-168.42623432,2.72565763
6.264336,0.00141437,-129.13318157,89.07946728
4.146902,0.00395522,-209.57106271,106.87553640
2.657787,0.01181504,-147.42578526,-174.18604521
4.668407,0.00294544,-121.54452017,-160.00648570
3.556283,0.00578968,-127.06868336,164.80729906
1.212655,0.05233000,-81.60345879,137.22912151
4.285132,0.00364554,-181.28901380,0.53135705
2.645221,0.01195096,-123.59495613,111.73593738
6.295752,0.00139681,-101.29649329,-52.29047751
3.034779,0.00855566,-109.43560408,-32.61441928
4.800354,0.00274786,-104.64121768,64.29961560
6.446548,0.00131663,-110.92514626,118.03217059
7.985929,0.00077112,-117.98404805,-119.40440451
7.973362,0.00077416,-188.37712906,95.62264530
1.086991,0.05242280,-131.83318093,-151.22991819
1.256637,0.05112340,-125.51060425,99.45286816
3.738495,0.00511600,-80.04893285,88.93221713
2.004336,0.02287300,-122.82306966,92.67821519
5.403539,0.00204556,-152.95516229,166.28667609
6.283185,0.00140380,-128.08063853,-131.34427200
6.258053,0.00141792,-157.58976824,55.62784208
7.791150,0.00082020,-116.92557491,-126.69586541
4.473628,0.00327522,-141.23943047,5.98081994
1.168672,0.05304300,-121.34603967,-76.75571807
4.907168,0.00260120,-98.27106965,-18.87655293
6.974336,0.00108168,-186.31136993,-86.93030259
7.954513,0.00077876,-135.76791724,-67.53453531
2.921681,0.00938838,-168.14102702,-87.71926548
6.157522,0.00147643,-121.31196198,-28.78734768
3.851593,0.00475158,-115.47556196,104.10471250
3.707079,0.00522408,-138.91127825,128.54021655
4.077787,0.00412390,-60.18841310,0.55949672
5.215044,0.00223500,-90.46900425,44.69976075
5.158495,0.00229662,-67.48868972,49.05962580
0.867080,0.02989060,-80.99375483,125.92179942
7.784867,0.00082186,-41.88691345,122.71495465
6.810973,0.00114766,-100.06490458,135.25069825
2.023186,0.02239840,-97.02686486,146.20278650
4.932300,0.00256828,-141.40842141,-88.68584528
6.917787,0.00110390,-187.39838243,-29.75948517
5.799380,0.00171469,-149.70573778,-72.18294190
6.823539,0.00114239,-107.60200922,133.41608739
6.440265,0.00131984,-86.50616235,104.19122913
3.606548,0.00559210,-159.95845144,-130.25679810
6.232920,0.00143224,-214.68911750,144.30285845
1.771858,0.02984140,-102.95625253,81.63445369
4.630708,0.00300554,-87.48238482,62.35155910
7.074867,0.00104369,-150.12824203,4.33468928
1.043009,0.05064660,-85.90872479,-154.15773253
2.280796,0.01700818,-135.61615334,67.76658322
1.401150,0.04531420,-103.44943300,-17.20918845
6.911504,0.00110641,-114.76596848,-58.18099931
7.206814,0.00099660,-147.39701246,-137.96537228
6.710442,0.00119109,-166.80231898,-129.42772817
5.346991,0.00209996,-155.20402389,17.66904437
3.311239,0.00690572,-58.31456495,26.85309946
4.555309,0.00313096,-183.55360062,-58.74020611
2.255664,0.01745460,-99.41780550,-170.48702969
3.455752,0.00621492,-140.36106996,27.11368067
2.475575,0.01401150,-122.11309427,-146.26867665
6.151238,0.00148020,-156.32794070,-157.07924432
6.421415,0.00132954,-83.18873885,54.12955744
3.154159,0.00778298,-138.38951986,-60.31584005
5.485221,0.00197039,-146.90780959,38.91277243
4.863185,0.00266022,-160.07821510,-88.74600585
1.577080,0.03743480,-128.74045259,-57.11999606
1.269203,0.05070960,-101.98199996,55.62944636
4.869469,0.00265168,-126.86324717,-17.64045378
7.734601,0.00083527,-52.74180112,145.77077632
2.312212,0.01647100,-126.74055577,141.18195734
7.728318,0.00083697,-166.62477932,80.33441246
7.948229,0.00078030,-170.93966716,147.11550827
6.069557,0.00153044,-114.85846598,22.43072472
3.493451,0.00605054,-68.35424561,166.63045077
4.479911,0.00326380,-110.14928497,-127.96553988
3.700796,0.00524608,-113.46954032,23.37444351
7.759734,0.00082853,-114.76214838,16.67261347
6.766991,0.00116638,-116.50704045,-7.72862770
7.012035,0.00106721,-162.74573024,-153.70223108
1.162389,0.05309460,-147.89209557,-18.69962356
0.810531,0.01968358,-110.89543204,-151.31357003
1.928938,0.02489880,-36.88885364,49.10918665
5.428672,0.00202200,-81.21620428,-45.45056465
0.766549,0.01217288,-77.66184932,-109.88241891
7.200530,0.00099877,-91.61462871,-38.37023869
4.919734,0.00258466,-188.40596327,172.40013577
2.525840,0.01335416,-72.54183495,-111.56519595
5.378407,0.00206948,-247.80390905,171.39516779
6.270619,0.00141083,-140.63942456,52.03104222
3.757345,0.00505262,-97.92736590,146.80782993
3.480885,0.00610466,-116.36552176,174.11213366
6.339734,0.00137273,-102.94661279,-1.04737258
7.269645,0.00097522,-171.29403159,-109.30831520
4.385663,0.00344118,-175.66573302,-88.61766330
1.514248,0.04019260,-125.11143172,-127.26366658
1.030442,0.04991100,-142.58571158,128.76882671
8.086459,0.00074739,-177.40393454,147.07998488
2.331062,0.01615936,-162.14884703,28.43154089
6.930353,0.00109891,-118.20575051,123.53485725
1.702743,0.03235060,-216.65923073,171.55387710
5.277876,0.00216922,-193.64097461,-14.71114976
5.397256,0.00205150,-77.88224411,169.86651640
6.389999,0.00134592,-123.67252009,-95.83807743
5.510354,0.00194804,-14.10295640,116.83182401
2.846283,0.01000630,-104.89852157,68.19343678
0.791681,0.01634394,-94.36636790,70.43542063
7.885398,0.00079593,-159.68486291,-58.70124498
7.539822,0.00089024,-56.21947776,66.70718426
6.025575,0.00155849,-131.35461989,-71.53492664
5.472654,0.00198170,-201.56867561,-46.32335126
5.384690,0.00206346,-197.57855860,164.66921624
8.073893,0.00075030,-149.25211520,82.60733603
5.390973,0.00205746,-112.12976329,93.78058599
3.908141,0.00458282,-227.89337775,175.58406223
1.049292,0.05097440,-159.77986493,100.57758432
3.474601,0.00613196,-143.86431251,-130.37482741
6.999468,0.00107200,-96.52771408,-55.39694008
4.209734,0.00381008,-135.65596942,-165.87414648
6.723008,0.00118554,-193.66731436,111.05469056
4.599292,0.00305694,-120.59587376,157.42817562
1.815841,0.02835320,-27.47688735,-28.32004331
0.816814,0.02082000,-139.87046371,-14.46769999
7.527256,0.00089395,-121.58530714,-52.86188832
2.550973,0.01304098,-84.44425190,101.98247683
3.304955,0.00693812,-174.09392009,103.92079305
0.841947,0.02539740,-235.53234297,-135.20027796
1.036726,0.05029220,-87.77852136,165.55844673
5.064247,0.00240468,-149.92122747,3.91005307
7.715752,0.00084038,-40.68562509,-74.92397200
0.860796,0.02878420,-169.98160064,153.53664628
1.796991,0.02898080,-130.96357843,-130.82230745
2.934248,0.00929050,-193.91455546,100.98839505
3.845309,0.00477086,-153.96178980,-57.11609995
4.297699,0.00361908,-120.16625531,85.05443877
4.071504,0.00413974,-146.46812643,83.24503805
2.412743,0.01489556,-70.32564484,-86.45646650
6.132389,0.00149159,-122.65521267,175.44999011
1.903805,0.02562180,-152.88266339,171.96927150
7.904247,0.00079119,-79.08906205,-147.01065699
2.274513,0.01711838,-215.37358786,-122.11220305
3.053628,0.00842684,-123.02702267,52.60279680
7.696902,0.00084553,-99.99098948,67.82101421
7.213097,0.00099443,-96.08381540,9.34568648
7.125132,0.00102539,-93.56247724,-129.52684987
6.276902,0.00140731,-130.77735267,73.36495384
5.749115,0.00175236,-82.30299862,147.04045080
5.560619,0.00190440,-125.58665303,54.32986349
3.015929,0.00868722,-213.00205698,150.05650063
3.581416,0.00568970,-130.00986816,-147.19171165
3.223274,0.00737908,-160.56090927,138.60422022
4.291416,0.00363228,-167.48889312,38.36273295
7.395309,0.00093434,-141.90350506,-94.49735619
3.983539,0.00437052,-159.86088862,-12.69347888