
This full-field turbulence file was generated by TurbSim on 18-May-2018 at 16:25:24.

 | w-comp |  Y  x  Z  | Grid Resolution (Y x Z) | Time-step | Hub Elev | Mean U |
             5     5      7.500      7.500          0.050      37.00      7.35

 Z Coordinates (m):
  -15.000  -7.500   0.000   7.500  15.000

 Y Coordinates (m):
  -15.000  -7.500   0.000   7.500  15.000

    0.000   0.277
    0.441   1.217   1.195   0.334   0.511
   -0.124   0.442  -0.817   1.653   1.182
   -0.289   0.683   0.277   1.363   1.519
    0.522   0.354  -0.068   0.459   0.290
    1.107   1.643   0.413   0.837  -0.187

    0.050   0.409
    0.291   1.264   1.556   0.138   0.780
   -0.037   0.854  -0.999   1.582   1.244
   -0.149   0.345   0.409   0.743   1.311
    0.325   0.646   0.231   0.120   0.024
    1.699   1.661   0.619   0.722  -0.497

    0.100   0.198
    0.596   1.088   1.331   0.271   0.577
   -0.081   0.653  -0.530   1.559   1.092
    0.158   0.628   0.198   0.651   1.111
    0.225   0.537  -0.087  -0.005   0.129
    1.339   1.817   0.737   0.828  -0.169

    0.150   0.072
    0.418   0.941   0.989   0.362   0.559
   -0.024   0.479  -0.174   1.103   1.499
   -0.334   0.484   0.072   0.707   1.474
    0.211   0.188  -0.041  -0.200   0.350
    1.404   1.826   0.651   0.498  -0.106

    0.200   0.023
    0.685   1.032   0.823   0.656   0.517
   -0.408   0.650   0.290   0.728   1.897
   -0.525   0.378   0.023   0.782   1.661
   -0.161   0.120   0.214  -0.009   0.418
    1.343   1.455   0.632   0.463   0.272

    0.250   0.322
    0.534   0.768   0.715   0.417   0.635
   -0.255   0.847   0.199   0.609   1.982
   -0.367   0.468   0.322   0.971   1.524
    0.032   0.278   0.194  -0.174   0.139
    1.614   1.225   0.653   0.448   0.257

    0.300  -0.225
    0.378   0.789   0.532   0.556  -0.086
   -0.462   0.943  -0.001   0.439   1.517
   -0.328   0.595  -0.225   0.660   1.464
   -0.040   0.592   0.312  -0.063  -0.014
    0.970   1.185   0.723   0.394   0.311

    0.350  -0.041
    0.911   0.675   0.955   0.490  -0.032
   -0.438   0.781  -0.076   0.306   1.627
   -0.058   0.705  -0.041   0.387   1.610
   -0.169   0.600   0.594  -0.063  -0.228
    0.603   0.811   0.608   0.694   0.753

    0.400   0.460
    1.117   0.754   1.405   0.476  -0.266
   -0.155   0.924  -0.200  -0.096   1.308
    0.283   0.622   0.460   0.258   1.736
    0.043   0.445   0.530  -0.596  -0.199
    0.950   0.679   0.328   0.983   0.740

    0.450   0.557
    1.110   0.723   1.320   0.565   0.031
    0.156   0.330   0.040  -0.138   1.439
    0.327   0.494   0.557   0.259   1.350
    0.443   0.094   0.258  -0.362  -0.310
    0.661   0.809   0.768   0.865   0.525

    0.500   0.557
    0.958   0.385   1.211   0.200   0.432
    0.281   0.579   0.273  -0.445   1.700
    0.364   0.619   0.557   0.353   1.167
    0.046   0.207   0.499  -0.675  -0.182
    0.264   1.010   0.719   1.292   0.642

    0.550   0.427
    1.228   0.236   1.206   0.205   0.146
   -0.082   0.462  -0.005  -0.524   1.508
    0.506   0.770   0.427   0.754   1.140
    0.291   0.184   0.513  -0.861  -0.043
   -0.163   0.985   0.457   1.391   0.643

    0.600   0.688
    1.466   0.215   1.349   0.042   0.108
    0.011   0.318   0.040  -0.700   1.619
    0.691   1.214   0.688   0.375   1.345
    0.356   0.090   0.506  -0.722   0.107
    0.107   0.677   0.067   1.029   0.886

    0.650   0.490
    1.273   0.561   1.236   0.203   0.048
    0.437   0.497   0.159  -0.856   1.433
    0.793   1.534   0.490   0.487   1.161
    0.465  -0.001   0.920  -1.031   0.334
   -0.293   0.510   0.026   1.145   0.537

    0.700   0.298
    1.366   0.566   1.373   0.253   0.090
    0.388   0.461  -0.146  -0.668   1.335
    1.044   1.127   0.298   0.920   1.221
    0.442   0.247   1.024  -1.117   0.351
    0.148   0.622   0.004   1.252   0.572

    0.750   0.358
    1.302   0.610   1.543   0.645   0.212
    0.051  -0.007  -0.422  -0.501   1.144
    0.723   0.834   0.358   0.828   1.418
    0.774   0.049   0.891  -1.005  -0.066
    0.180   1.319   0.640   1.338   0.432

    0.800   0.683
    1.006   0.825   1.314   0.161   0.370
   -0.076   0.008  -0.837   0.027   1.313
    0.739   0.868   0.683   0.867   1.260
    0.640  -0.266   1.143  -1.001   0.352
   -0.015   0.928   0.559   1.349   0.330

    0.850   0.685
    0.955   0.889   0.856   0.175   0.511
    0.135  -0.020  -0.713   0.134   1.217
    0.686   0.685   0.685   0.552   1.511
    0.741   0.025   1.200  -0.890   0.139
   -0.296   1.193   0.601   1.404   0.617

    0.900   0.710
    0.824   0.438   1.114   0.653   1.020
   -0.129   0.111  -0.540   0.182   1.100
    0.982   0.951   0.710   0.633   1.489
    0.835   0.117   1.407  -0.952   0.352
   -0.101   0.627   0.449   1.185   1.020

    0.950   0.962
    1.051   0.701   0.832   0.908   1.436
    0.016  -0.004  -0.431   0.117   0.879
    0.613   0.704   0.962   0.982   1.126
    0.750   0.405   1.093  -1.051   0.205
   -0.142   0.432   0.354   1.219   1.079

    1.000   1.135
    0.857   0.941   0.692   0.480   1.371
    0.278   0.234  -0.455   0.147   1.014
    0.141   0.592   1.135   1.072   1.230
    0.726   0.367   0.598  -1.022   0.771
   -0.237   0.363   0.358   0.650   0.805

    1.050   1.373
    0.860   1.291   0.859   0.861   1.297
    0.128   0.658  -0.580  -0.012   1.220
    0.403   0.656   1.373   1.096   1.340
    0.878   0.544   0.436  -0.877   0.961
   -0.337   0.349   0.585   0.582   0.861

    1.100   1.608
    0.714   1.111   0.598   1.147   1.783
    0.112   1.029  -0.700   0.355   1.204
    0.140   0.477   1.608   1.327   1.475
    0.868   0.362   0.611  -0.910   0.999
   -0.285   0.365   0.686   0.779   0.730

    1.150   1.293
    0.548   1.064   0.737   1.037   1.596
   -0.020   1.032  -0.671   0.557   0.901
    0.089   0.363   1.293   1.356   1.693
    0.865   0.692   0.673  -0.692   1.187
   -0.607   0.384   0.309   0.645   0.854

    1.200   0.784
    0.641   1.263   1.007   0.937   1.872
    0.491   1.039  -0.522   0.508   0.947
    0.269   0.371   0.784   1.192   1.149
    0.519   0.856   0.194  -0.719   1.423
   -0.365   0.344   0.087   0.436   0.895

    1.250   0.765
    0.442   1.447   1.074   1.215   1.962
    0.639   1.167  -0.319   0.771   0.922
    0.057   0.242   0.765   1.108   1.191
    0.389   1.045   0.157  -0.729   1.766
   -0.446   0.252   0.494  -0.003   1.378

    1.300   0.825
    0.524   1.439   1.254   0.943   1.627
    0.261   1.067  -0.298   0.606   1.024
   -0.088   0.765   0.825   1.387   1.226
    0.638   1.062   0.599  -0.678   1.595
   -0.459   0.502  -0.063  -0.013   1.203

    1.350   0.897
    0.799   1.270   0.999   0.749   1.399
    0.413   0.858  -0.311   1.021   0.960
   -0.164   0.567   0.897   1.795   1.233
    0.968   0.795   0.496  -0.299   1.868
   -0.150   0.596  -0.273  -0.002   0.708

    1.400   0.967
    1.081   1.151   1.204   0.714   1.353
    0.510   0.944  -0.202   0.995   1.065
   -0.333   0.597   0.967   1.201   1.226
    0.982   0.636   0.315  -0.649   1.951
    0.324   0.724  -0.303  -0.334   0.995

    1.450   0.932
    1.178   0.989   1.293   0.635   1.441
    0.444   0.893   0.018   0.678   1.276
   -0.063   0.796   0.932   1.428   1.027
    0.914   1.172  -0.056  -0.655   1.524
    0.315   0.515  -0.138   0.154   0.878

    1.500   0.633
    1.388   0.951   1.088   0.252   1.557
    0.892   1.477   0.236   0.629   0.717
   -0.050   1.072   0.633   1.545   1.106
    1.063   0.892   0.233  -0.889   1.504
    0.736   0.567  -0.105   0.015   0.869

    1.550   0.501
    1.804   1.317   1.261   0.305   1.839
    0.826   1.531  -0.065   0.459   0.599
    0.065   1.192   0.501   1.346   1.099
    1.153   0.680  -0.132  -0.403   1.499
    0.214   0.656   0.172   0.038   1.233

    1.600   0.529
    2.067   1.578   1.211   0.558   1.245
    1.187   1.195  -0.302   0.580   0.814
   -0.192   0.970   0.529   1.809   0.934
    1.025   0.796  -0.174  -0.132   1.441
    0.174   0.631   0.046  -0.108   1.224

    1.650   0.489
    2.001   1.114   1.446   0.408   1.142
    1.055   1.516  -0.198   0.621   0.787
    0.121   0.805   0.489   1.945   1.101
    0.877   0.566   0.022  -0.086   1.423
   -0.009   0.559   0.255  -0.094   1.150

    1.700   0.433
    1.857   1.314   1.549   0.633   1.163
    0.886   1.474  -0.061   0.671   0.810
   -0.008   0.852   0.433   2.022   1.521
    0.586   0.415   0.319  -0.466   1.684
   -0.120   0.255   0.514  -0.238   1.556

    1.750   0.653
    1.664   1.422   1.446   0.602   1.209
    0.685   1.569  -0.384   0.688   0.701
    0.065   0.919   0.653   1.840   1.180
    1.223   0.304   0.501  -0.548   1.819
   -0.234  -0.397   0.589   0.471   1.579

    1.800   0.738
    1.491   1.821   1.581   0.829   1.283
    0.406   1.387  -0.216   0.971   0.196
    0.159   0.765   0.738   1.631   0.720
    0.929  -0.002   0.564  -0.121   1.857
    0.091  -0.027   0.597   0.764   1.429

    1.850   0.520
    1.511   1.784   1.576   0.760   1.460
    0.186   1.884  -0.523   0.920   0.451
   -0.338   0.356   0.520   1.354   0.537
    1.320   0.134   0.005  -0.068   1.905
    0.059   0.316   0.840   0.471   1.330

    1.900   0.620
    1.737   1.843   1.342   0.805   1.089
    0.270   1.788  -0.392   0.825   0.640
   -0.105   0.443   0.620   1.490   0.521
    1.206   0.099  -0.612   0.017   1.902
    0.115   0.002   0.835   0.656   1.182

    1.950   0.331
    1.806   1.668   1.234   0.703   1.167
    0.345   1.698  -0.358   0.806   0.216
    0.226   0.295   0.331   1.392   0.538
    1.148   0.209  -0.517   0.219   1.393
    0.307   0.439   0.966   0.473   1.366

    2.000   0.218
    1.752   1.746   1.513   0.561   1.370
    0.307   1.379   0.034   0.852   0.428
    0.229   0.579   0.218   1.518   0.239
    1.000   0.464  -0.400   0.042   1.432
    0.244   0.773   1.231   0.299   1.400

    2.050  -0.125
    1.825   1.580   1.462   0.804   1.279
    0.276   1.557  -0.064   0.680   0.517
    0.507   0.293  -0.125   1.318   0.406
    0.787   0.245  -0.251   0.215   1.591
    0.284   0.597   1.066   0.234   1.342

    2.100   0.320
    1.635   1.479   1.495   0.025   1.277
   -0.270   1.545  -0.306   0.895   0.486
    0.725   0.595   0.320   1.462   0.385
    0.876  -0.167  -0.020   0.530   1.743
    0.373   0.270   0.739   0.540   1.509

    2.150   0.578
    1.557   1.101   1.546  -0.100   1.476
   -0.293   1.560  -0.396   0.759   0.796
    0.749   0.418   0.578   1.424  -0.064
    0.846  -0.542   0.047   0.735   1.410
    0.260   0.351   0.364   0.250   1.384

    2.200   0.438
    1.637   1.028   1.528  -0.121   2.150
   -0.293   2.097  -0.705   0.853   1.048
    0.567   0.750   0.438   1.519   0.173
    0.490  -0.357   0.131   0.649   1.558
    0.555   0.289   0.537   0.414   1.304

    2.250   0.334
    1.864   1.159   1.492  -0.473   2.069
   -0.306   2.307  -0.708   1.141   1.181
   -0.156   0.437   0.334   1.238   0.348
    0.345  -0.053   0.269   0.158   1.702
    0.629   0.441   0.639   0.353   1.467

    2.300   0.059
    1.850   1.225   1.459  -0.563   2.142
   -0.132   1.929  -0.632   0.985   1.364
   -0.430   0.422   0.059   1.508   0.250
    0.286   0.059   0.744   0.291   1.480
    0.597   0.196   0.706   0.588   0.513

    2.350   0.276
    1.824   1.110   1.189  -0.510   1.952
    0.053   1.569  -0.653   0.934   1.007
   -0.281   0.467   0.276   1.510  -0.085
    0.168   0.420   0.887   0.274   1.224
    0.499   0.216   0.935   0.528   0.608

    2.400   0.477
    1.640   1.078   1.447  -0.279   1.698
   -0.027   1.561  -0.593   0.970   1.322
   -0.190   0.444   0.477   1.306  -0.076
    0.143   0.661   0.741  -0.056   1.531
    0.602  -0.014   0.911  -0.033   0.563

    2.450  -0.086
    1.639   0.742   1.855  -0.319   2.209
   -0.441   1.508  -0.599   1.031   1.524
   -0.343   0.243  -0.086   1.321  -0.094
    0.386   0.550   0.813  -0.074   1.105
    0.600   0.474   0.537  -0.224   0.801

    2.500  -0.057
    1.543   1.216   1.764   0.033   2.413
   -0.581   1.442  -0.111   0.930   1.510
    0.102   0.089  -0.057   0.891  -0.134
    0.659   0.698   1.129   0.313   0.708
    0.525   0.259   0.500   0.067   0.991

    2.550   0.325
    1.571   1.008   2.175   0.050   2.129
   -0.544   1.176  -0.231   0.820   1.428
   -0.346   0.492   0.325   0.866  -0.377
    0.848   0.916   1.284   0.705   0.516
    0.534   0.277   0.468   0.272   0.550

    2.600  -0.095
    1.765   0.502   2.026   0.396   1.803
   -0.421   1.026  -0.471   0.782   1.489
   -0.322   0.845  -0.095   1.386  -0.140
    1.120   0.777   1.325   0.354   0.686
    0.471   0.354   0.632   0.643   0.438

    2.650   0.292
    1.299   0.374   2.363   0.575   1.688
   -0.297   1.017  -0.421   0.756   1.345
   -0.259   0.547   0.292   1.341  -0.019
    1.670   0.186   1.267   0.439   0.611
    0.321  -0.052   0.843   0.898   0.474

    2.700   0.296
    1.358   0.081   1.995   0.541   1.346
   -0.251   0.932  -0.654   0.532   1.524
   -0.142   0.776   0.296   1.448  -0.143
    1.415   0.439   0.825   0.460   0.656
    0.289  -0.036   0.871   1.412   0.470

    2.750  -0.047
    1.014   0.235   1.681   0.675   1.251
   -0.378   1.166  -0.316   0.618   1.636
   -0.387   0.807  -0.047   1.104  -0.111
    1.242   0.792   0.884   0.575   0.798
    0.306  -0.059   0.495   1.390   0.979

    2.800   0.488
    0.992   0.731   1.399   0.366   1.360
   -0.324   1.455  -0.335   0.843   1.608
   -0.648   0.624   0.488   1.337   0.193
    1.594   0.522   0.887   0.881   0.614
    0.392  -0.344   0.879   1.203   0.816

    2.850   0.217
    1.485   0.507   1.412   0.062   0.883
   -0.635   0.868  -0.257   0.542   1.601
   -0.835   0.346   0.217   1.581   0.149
    1.476   0.263   1.110   0.640   0.515
   -0.048  -0.095   0.687   1.009   0.814

    2.900  -0.030
    0.845   0.746   1.118  -0.011   0.691
   -0.586   1.598  -0.166   0.808   1.360
   -0.787   0.506  -0.030   1.671   0.279
    1.057   0.745   1.517   0.680   0.485
   -0.273   0.504   0.634   0.962   0.495

    2.950   0.418
    0.874   1.561   0.932   0.249   0.689
   -0.785   1.824   0.175   1.272   0.781
   -0.439   0.473   0.418   1.131  -0.230
    0.815   0.437   1.310   0.518   1.004
   -0.192   0.634   0.427   1.227   0.609

    3.000   0.548
    0.891   1.664   0.963   0.537   1.063
   -0.213   1.390  -0.028   0.959   1.358
   -0.400   0.966   0.548   1.358  -0.217
    0.984   0.078   1.055   0.508   1.193
   -0.624   0.482   0.171   0.997   0.571

    3.050   0.704
    0.539   2.018   0.708   0.554   0.543
    0.185   1.608   0.063   1.028   1.324
   -0.460   0.979   0.704   1.715  -0.100
    1.248  -0.224   1.255   0.983   1.123
   -0.441   0.246   0.592   0.880   0.540

    3.100   0.816
    1.072   2.020   0.840   0.607   0.627
   -0.011   1.391   0.003   1.029   1.715
   -0.749   0.948   0.816   1.901   0.131
    0.838  -0.080   1.058   0.782   1.278
   -0.493   0.175   0.476   0.270   0.521

    3.150   0.406
    1.465   1.533   0.743   0.029   0.752
    0.198   1.179  -0.098   1.136   1.195
   -1.152   0.726   0.406   1.871   0.183
    0.816  -0.403   1.204   0.386   1.005
   -0.314   0.318   0.445   0.065   0.779

    3.200   0.433
    1.376   1.341   1.116  -0.002   0.835
    0.304   1.102  -0.231   1.106   1.361
   -0.941   0.739   0.433   1.786  -0.128
    0.190  -0.706   1.600   0.584   0.725
   -0.273   0.441   0.818  -0.074   1.085

    3.250   0.481
    1.637   1.106   1.296  -0.045   1.194
    0.400   0.855  -0.259   1.322   1.108
   -0.194   0.425   0.481   1.252   0.184
   -0.206  -0.586   1.685   0.968   0.819
    0.007   0.176   1.019  -0.038   0.953

    3.300   0.990
    1.224   0.913   1.284  -0.234   1.061
    0.298   0.691  -0.181   1.329   1.201
   -0.276   0.345   0.990   1.498   0.031
   -0.061  -0.245   1.363   0.825   0.703
   -0.318   0.571   1.229   0.489   0.826

    3.350   0.852
    1.253   0.872   1.138  -0.091   0.626
    0.242   0.869   0.005   1.168   0.961
   -0.322   0.419   0.852   1.570   0.082
    0.340  -0.200   1.021   0.324   0.814
   -0.165   0.248   1.194   0.786   1.276

    3.400   0.331
    1.436   0.767   0.847  -0.428   0.148
    0.275   0.883  -0.189   1.284   0.841
   -0.333   0.544   0.331   1.345  -0.458
    0.755  -0.089   0.905   0.392   0.897
   -0.007   0.304   0.939   0.641   1.327

    3.450   0.417
    1.458   0.910   1.081  -0.605   0.268
    0.575   0.830  -0.405   1.531   1.393
   -0.501   0.367   0.417   1.657  -0.167
    0.667  -0.367   1.041   0.322   0.872
    0.008   0.333   1.314   0.883   1.255

    3.500   0.351
    1.552   0.871   1.031  -0.485   0.585
    0.610   0.669  -0.352   1.603   1.262
   -0.513   0.432   0.351   1.599   0.168
    0.750  -0.415   1.385   0.519   1.070
    0.131   0.246   1.104   1.247   1.145

    3.550   0.310
    1.405   0.718   1.274  -0.629   0.638
    0.456   0.793  -0.150   1.546   0.918
   -0.488   0.123   0.310   1.603  -0.189
    0.578  -0.287   1.042   0.605   0.975
    0.276   0.319   0.886   1.486   1.318

    3.600   0.706
    1.309   1.082   1.512  -0.628   0.915
    0.564   0.935  -0.304   1.319   1.218
   -0.621   0.007   0.706   1.324  -0.191
    0.704  -0.885   0.700   0.385   0.960
    0.531   0.368   1.066   1.096   1.038

    3.650   0.483
    1.616   0.918   1.323  -0.431   0.814
    0.620   1.204  -0.422   1.797   1.706
   -0.372  -0.371   0.483   1.350   0.060
    0.795  -0.734   0.605   0.194   0.977
    0.795   0.201   0.722   1.403   0.854

    3.700   0.488
    1.068   0.778   1.500  -0.372   0.682
    0.576   1.191  -0.316   2.038   1.269
   -0.646  -0.613   0.488   1.223   0.211
    0.838  -0.633   0.645   0.348   0.902
    0.852   0.807   0.649   1.424   0.910

    3.750   0.634
    1.155   0.654   1.596  -0.537   0.732
    0.896   0.336  -0.152   1.859   1.111
   -0.924  -0.371   0.634   1.114  -0.104
    0.523  -0.072   0.315   0.356   0.518
    0.944   1.009   1.142   1.513   0.801

    3.800   0.608
    1.186   0.743   1.658  -0.674   0.743
    1.010   0.031  -0.253   1.671   0.841
   -0.974  -0.403   0.608   1.128  -0.335
    0.582  -0.229   0.387   0.471   0.446
    0.632   0.699   1.211   1.176   0.940

    3.850   0.499
    0.764   0.468   2.214  -0.578   0.523
    0.930   0.230  -0.125   1.630   0.583
   -1.052  -0.144   0.499   1.023  -0.039
    0.771  -0.037   0.828   0.771   0.698
    0.642   0.640   1.364   0.860   1.320

    3.900   0.282
    1.134   0.331   1.783  -0.616   0.533
    1.100   0.026  -0.671   1.315   0.917
   -0.331   0.100   0.282   1.076  -0.063
    1.262   0.254   1.086   0.879   0.880
    0.323   0.880   1.458   0.627   1.211

    3.950   0.610
    1.087   0.527   1.905  -0.632   0.572
    0.801  -0.033  -0.449   1.713   0.830
   -0.409   0.014   0.610   0.984  -0.293
    1.198   0.538   1.059   0.823   0.883
    0.367   0.613   1.085   0.734   1.228

    4.000   0.438
    1.402   0.465   2.085  -0.591  -0.054
    0.696   0.086   0.361   1.682   0.862
   -0.539  -0.223   0.438   1.256  -0.170
    0.960   0.750   1.064   0.629   0.828
    0.060   0.596   0.914   1.117   0.846

    4.050  -0.040
    1.308   0.605   2.134  -0.374   0.081
    0.591   0.245  -0.148   1.544   0.984
   -0.657  -0.050  -0.040   1.679  -0.088
    0.871   0.835   0.931   0.440   0.859
    0.133   0.446   1.044   0.984   0.898

    4.100   0.195
    1.054   0.365   1.847  -0.272   0.200
    0.302   0.324  -0.665   1.581   1.009
   -0.842   0.045   0.195   1.757   0.037
    0.940   0.613   0.863   0.818   0.916
    0.552   0.311   0.645   0.653   0.812

    4.150   0.370
    0.899  -0.132   1.666  -0.516   0.105
    0.221   0.271  -0.405   1.470   1.034
   -0.738   0.154   0.370   1.687  -0.373
    0.462   0.641   0.930   0.912   0.892
    0.590   0.199   0.699   0.677   0.535

    4.200   0.496
    0.510   0.245   1.399  -0.713   0.026
   -0.029  -0.048  -0.271   1.502   0.810
   -0.919   0.557   0.496   1.485  -0.071
    0.753   0.891   1.121   0.449   0.836
    0.321   0.289   0.754   0.893   0.734

    4.250   0.150
    0.433   0.574   1.969  -0.630   0.185
   -0.344   0.447  -0.102   1.588   0.942
   -1.047   0.573   0.150   1.297   0.035
    0.957   1.043   1.191   0.092   1.209
    0.083   0.690   1.059   1.008   1.156

    4.300   0.280
    0.652   0.270   2.107  -0.512   0.499
   -0.087   0.401  -0.182   1.501   0.907
   -0.687   0.617   0.280   1.300  -0.756
    0.901   1.422   1.640  -0.072   1.380
    0.024   0.809   0.972   1.096   1.115

    4.350   0.375
    0.853   0.114   1.841  -0.385   0.624
   -0.003   0.364  -0.102   1.376   0.818
   -0.615   0.980   0.375   1.423  -0.906
    0.986   1.331   1.423   0.315   1.470
    0.274   0.630   0.949   0.956   1.252

    4.400   0.454
    0.905   0.323   1.926  -0.077   0.464
    0.156   0.282  -0.172   1.012   0.546
   -1.184   1.062   0.454   1.394  -0.766
    0.571   1.210   1.498   0.533   1.349
    0.016   0.147   0.655   0.812   1.695

    4.450   0.678
    0.974   0.466   1.942   0.072   0.634
    0.175   0.261   0.053   1.020   0.770
   -1.276   0.553   0.678   1.427  -0.907
    0.780   0.845   1.568   0.155   1.228
    0.170   0.137   0.700   0.781   1.138

    4.500   0.821
    0.433   0.852   1.490   0.116   0.685
    0.080   0.350   0.011   1.044   0.388
   -1.158   0.469   0.821   1.525  -0.568
    0.286   0.424   1.161   0.309   1.521
    0.527   0.094   0.865   1.023   1.019

    4.550   0.328
    0.290   0.581   0.986  -0.336   0.195
    0.185   0.320  -0.058   0.970   0.877
   -0.781   0.258   0.328   1.391  -0.537
    0.380   0.053   1.374   0.070   1.279
   -0.070   0.245   0.996   0.892   1.171

    4.600   0.288
    0.973   0.838   1.031  -0.453   0.118
    0.470   0.454  -0.163   1.232   0.532
   -0.839   0.667   0.288   1.886  -0.253
    0.839   0.254   1.412   0.277   1.193
    0.183   0.257   0.715   0.952   1.238

    4.650   0.264
    1.141   1.185   1.567  -0.629   0.353
    0.236   0.461  -0.291   1.428   0.480
   -0.746   1.064   0.264   1.999  -0.395
    0.767  -0.204   1.351   0.171   1.059
    0.603   0.213   0.360   0.964   1.269

    4.700   0.326
    1.350   1.033   1.502  -0.387   0.460
    0.281   0.654   0.065   1.440   0.837
   -0.743   1.261   0.326   2.236  -0.579
    0.577  -0.279   1.473   0.584   0.951
    0.379   0.737   0.351   0.970   1.103

    4.750   0.635
    1.229   0.931   1.515  -0.521   0.576
    0.073   0.526   0.256   1.365   1.306
   -0.837   0.971   0.635   1.843  -0.496
    0.605  -0.220   1.348   0.412   0.957
    0.005   1.080   0.312   0.779   0.993

    4.800   0.532
    1.217   1.329   1.413  -0.600   0.583
   -0.407   0.466  -0.647   1.260   1.482
   -0.650   0.916   0.532   1.974  -0.820
    1.139  -0.164   1.296   0.013   1.062
    0.095   1.043   0.165   1.432   1.252

    4.850   0.837
    1.178   1.083   1.299  -0.525   0.562
   -0.132   0.220  -0.618   1.140   1.827
   -0.656   1.095   0.837   1.851  -0.722
    1.083  -0.114   1.402   0.243   1.416
    0.244   0.932   0.331   1.394   1.250

    4.900   0.953
    0.920   1.125   1.262  -0.224   0.236
   -0.162   0.683  -0.762   1.514   1.717
   -0.900   1.139   0.953   1.722  -0.676
    0.733  -0.004   1.631   0.427   1.646
    0.380   0.776   0.465   1.579   0.967

    4.950   0.411
    1.169   0.919   1.822  -0.185   0.460
   -0.383   0.489  -0.479   1.180   1.634
   -0.904   1.165   0.411   1.767  -0.756
    0.981   0.188   1.669   0.553   1.605
    0.665   1.145   0.303   1.795   1.099

    5.000   0.239
    1.199   1.008   1.592   0.091   0.550
   -0.019   0.851  -0.627   0.860   2.137
   -0.659   1.184   0.239   1.624  -0.273
    1.223   0.253   1.917   0.503   1.492
    0.587   0.633  -0.248   1.676   0.928

    5.050   0.135
    1.149   0.779   1.640   0.281   0.544
   -0.200   0.602  -0.433   1.233   2.148
   -0.255   1.234   0.135   1.326  -0.185
    1.839   0.335   2.120   0.397   1.268
    0.199   0.823  -0.342   1.261   0.544

    5.100   0.238
    1.678   0.270   1.836  -0.137   0.555
   -0.284   0.456  -0.263   1.031   2.252
   -0.360   0.942   0.238   1.567  -0.520
    1.650   0.120   2.239   0.425   1.198
    0.024   1.190   0.193   1.613   0.377

    5.150   0.075
    1.666   0.233   1.686  -0.119   0.708
   -0.386   0.570   0.117   1.051   2.239
   -0.450   1.156   0.075   1.442  -0.459
    1.399   0.030   2.438   0.580   1.397
    0.223   0.927   0.684   1.702   0.618

    5.200  -0.064
    1.611   0.342   1.094  -0.096   0.770
   -0.237   0.752   0.091   1.406   2.172
   -0.335   0.935  -0.064   1.342  -0.585
    1.279   0.363   2.557   0.725   0.884
    0.452   0.885   0.995   1.099   0.780

    5.250   0.249
    1.662   0.022   1.039   0.241   0.846
   -0.057   0.908  -0.091   1.601   1.898
   -0.452   0.637   0.249   1.416  -0.356
    1.655   0.437   2.685   0.988   0.957
    0.457   0.572   0.666   1.395   0.446

    5.300   0.427
    1.478  -0.043   0.958  -0.032   0.660
   -0.455   0.706   0.283   1.833   1.550
   -0.422   0.773   0.427   1.198  -0.465
    1.794   0.996   2.452   0.743   0.895
    0.650   0.638   0.610   1.265   0.502

    5.350   0.643
    1.303   0.010   1.602   0.151   0.552
   -0.315   0.421   0.034   1.778   1.484
   -0.802   0.799   0.643   1.062  -0.218
    1.359   1.020   2.393   0.472   1.086
    0.598   0.228   0.308   1.390   0.287

    5.400   0.509
    1.318   0.094   1.939   0.215   0.456
   -0.587   0.537  -0.277   1.690   1.560
   -1.037   0.853   0.509   1.297  -0.603
    0.610   0.962   2.302   0.731   0.841
    0.898   0.262   0.350   1.182   0.058

    5.450   0.339
    1.226   0.078   1.768   0.784   0.367
   -0.560   0.720  -0.268   1.673   1.452
   -0.780   0.839   0.339   1.537  -0.642
    1.175   0.908   1.950   0.777   0.821
    0.895   0.213   0.145   1.530   0.140

    5.500   0.497
    1.287   0.069   1.750   0.788   0.520
   -0.332   0.590  -0.253   1.616   1.829
   -0.469   0.718   0.497   1.655  -0.642
    1.365   0.882   1.747   0.568   0.856
    1.005   0.292   0.369   1.610   0.011

    5.550   0.225
    1.116  -0.154   1.485   0.952   0.596
   -0.617   0.577  -0.054   1.373   1.908
    0.011   0.487   0.225   1.997  -0.628
    1.079   0.654   1.705   0.830   0.877
    0.714   0.180   0.544   1.324  -0.474

    5.600   0.581
    1.310   0.167   1.517   0.693   0.758
   -0.378   1.018  -0.199   1.522   1.413
   -0.071   0.657   0.581   2.094  -0.701
    1.143   0.687   1.393   0.716   0.875
    0.751   0.111   0.233   1.353  -0.576

    5.650   0.510
    1.127  -0.022   1.558   0.520   0.837
   -0.056   1.308  -0.477   1.757   1.210
    0.126   0.772   0.510   2.116  -0.704
    1.895   0.631   1.065   0.773   0.916
    1.178   0.075   0.608   1.089  -0.540

    5.700   1.051
    1.014   0.162   1.174   0.562   1.214
    0.166   1.962  -0.576   1.579   1.198
    0.447   0.659   1.051   2.278  -0.295
    1.495   0.622   1.295   0.813   0.715
    1.017   0.078   0.819   1.448  -0.621

    5.750   0.880
    1.496   0.196   1.081   0.630   1.579
    0.301   2.120  -0.453   1.436   1.147
    0.981   0.594   0.880   1.882  -0.570
    1.640   0.499   1.367   0.439   1.106
    1.119   0.191   0.750   1.663  -0.590

    5.800   0.678
    1.318   0.144   0.786   0.021   1.468
    0.556   1.779  -0.627   1.084   1.385
    0.676   0.582   0.678   1.732  -0.161
    1.783   0.539   1.275   0.121   1.131
    1.029   0.289   0.828   1.739  -0.692

    5.850   0.892
    1.259  -0.028   0.718  -0.408   1.525
    0.182   1.428  -0.729   1.135   1.273
    0.770   0.797   0.892   1.517  -0.055
    1.459   0.388   1.220   0.339   0.897
    1.104   0.128   0.804   1.666  -0.445

    5.900   0.579
    1.202   0.593   1.123  -0.415   1.668
    0.039   1.482  -0.636   0.790   1.055
    1.191   0.479   0.579   1.446  -0.433
    1.442   0.472   0.959   0.458   0.978
    0.984  -0.378   0.648   1.287  -0.365

    5.950   0.646
    1.181   0.759   1.449  -0.453   1.547
    0.228   1.313  -0.682   0.421   0.775
    1.579   0.364   0.646   2.119  -0.453
    1.733   0.354   1.035   0.204   1.149
    0.734   0.157   0.588   0.975   0.079

    6.000   0.476
    1.108   0.614   1.105  -0.424   1.496
    0.487   1.196  -0.485   0.319   1.100
    1.908   0.226   0.476   1.904  -0.242
    1.603   0.622   1.031   0.030   1.380
    0.638   0.111   0.412   0.982  -0.033

    6.050   0.509
    1.330   0.678   0.926  -0.654   1.520
    0.528   1.065  -0.356   0.490   1.247
    1.570   0.495   0.509   1.623  -0.304
    1.518   0.174   1.431  -0.289   1.007
    0.760   0.169   0.538   1.014   0.092

    6.100   0.738
    1.599   1.152   1.128  -0.769   1.246
    0.637   1.079  -0.365   0.253   0.574
    1.288   0.426   0.738   1.450  -0.272
    1.518   0.232   1.076   0.016   1.119
    0.742   0.269   0.770   0.893   0.410

    6.150   0.465
    1.750   0.897   1.141  -0.748   1.217
    0.616   0.556  -0.354   0.058   0.887
    1.134   0.272   0.465   1.674  -0.291
    1.195   0.366   1.244   0.210   1.565
    0.707   0.364   0.628   1.046   0.264

    6.200   0.325
    1.405   0.729   1.213  -0.591   0.920
    0.421   0.487  -0.052   0.210   0.641
    0.920   0.596   0.325   1.608   0.110
    1.170   0.446   0.895  -0.100   1.171
    0.535   0.330   0.380   1.040   0.573

    6.250   0.644
    1.311   1.098   1.445  -0.256   1.020
    0.405   0.372  -0.198   0.101   0.703
    0.948   0.616   0.644   1.408  -0.190
    1.335   0.512   0.808  -0.219   1.038
    0.120   0.571   0.616   0.984   0.722

    6.300   0.448
    1.070   1.098   1.553  -0.207   1.087
    0.032   0.704  -0.511   0.505   0.664
    1.414   1.312   0.448   1.478  -0.303
    1.253   0.294   0.540  -0.411   1.082
    0.242   0.716   0.847   1.188   0.662

    6.350   0.299
    1.689   1.222   1.448  -0.048   1.044
   -0.149   0.871  -0.509   0.551   0.270
    1.325   1.212   0.299   1.381  -0.097
    0.956   0.382   0.701   0.046   1.004
    0.359   0.864   1.099   1.002   0.696

    6.400   0.478
    1.879   1.322   1.364  -0.031   1.137
   -0.314   0.963  -0.337   0.660   0.590
    1.394   1.172   0.478   1.458  -0.094
    0.874   0.049   0.660  -0.139   1.017
    0.448   0.877   1.136   1.356   0.910

    6.450   0.558
    1.635   1.609   1.660  -0.079   0.720