
This full-field turbulence file was generated by TurbSim on 18-May-2018 at 16:25:24.

 | u-comp |  Y  x  Z  | Grid Resolution (Y x Z) | Time-step | Hub Elev | Mean U |
             5     5      7.500      7.500          0.050      37.00      7.35

 Z Coordinates (m):
  -15.000  -7.500   0.000   7.500  15.000

 Y Coordinates (m):
  -15.000  -7.500   0.000   7.500  15.000

    0.000   7.457
    7.662   8.444   6.787   7.224   7.366
    8.080   7.871   7.983   7.378   9.206
    9.289   7.623   7.457   7.620   9.142
    7.818   7.067   6.178   6.075   7.368
    8.525   7.976   7.572   6.769   6.857

    0.050   7.339
    7.407   8.237   6.870   7.133   7.284
    7.691   7.911   7.827   7.570   8.996
    8.991   7.826   7.339   7.976   9.311
    7.883   6.875   6.154   6.126   7.454
    8.590   7.771   7.541   6.879   7.015

    0.100   7.206
    7.505   8.552   6.921   7.109   7.301
    7.654   7.756   7.884   7.222   8.874
    8.784   8.487   7.206   7.942   9.458
    7.878   6.960   5.989   5.772   7.597
    8.617   7.989   7.461   6.887   6.870

    0.150   6.692
    7.595   8.385   6.942   7.095   7.514
    7.685   7.604   8.066   7.144   8.813
    8.962   8.526   6.692   8.028   9.358
    7.896   6.751   6.081   5.911   7.649
    8.531   8.397   7.355   6.554   6.935

    0.200   6.681
    7.831   8.376   6.883   7.159   7.732
    8.021   7.398   8.310   7.280   8.817
    9.138   8.256   6.681   7.885   9.416
    8.055   6.869   6.167   5.607   7.594
    9.271   7.858   7.014   6.772   7.243

    0.250   6.634
    7.919   8.531   7.297   7.171   7.980
    7.967   7.510   8.393   7.085   8.669
    9.212   8.222   6.634   7.752   9.095
    8.286   6.930   6.718   5.269   7.661
    8.772   7.846   6.954   6.939   7.215

    0.300   6.647
    8.053   8.624   7.486   7.028   8.110
    7.900   7.293   8.262   6.988   8.488
    9.364   8.059   6.647   7.649   9.010
    8.148   6.844   7.289   5.426   7.618
    8.858   8.117   7.243   6.920   7.088

    0.350   6.299
    8.079   8.395   7.592   7.299   8.378
    7.909   7.265   7.748   7.381   8.601
    9.109   7.700   6.299   7.581   8.887
    7.530   6.699   7.210   5.572   7.637
    8.746   8.070   7.208   7.183   7.139

    0.400   6.204
    8.160   8.435   7.547   7.293   8.241
    7.785   7.162   7.717   7.131   8.449
    8.991   7.976   6.204   7.509   8.808
    7.561   6.890   7.085   5.680   7.687
    8.297   7.756   7.537   7.008   7.056

    0.450   6.268
    8.130   8.285   7.696   7.419   8.298
    7.504   7.098   7.563   7.022   8.147
    8.817   8.206   6.268   7.622   8.540
    7.421   7.275   6.806   5.579   7.700
    7.769   7.666   7.509   6.888   6.929

    0.500   6.173
    7.816   8.318   7.812   7.408   8.564
    6.964   7.133   7.415   7.280   8.234
    8.893   7.768   6.173   7.990   8.466
    7.807   7.594   6.752   5.740   7.922
    7.919   7.920   7.734   6.792   6.722

    0.550   6.082
    8.033   8.233   7.616   7.044   8.255
    6.971   7.247   7.332   7.490   8.561
    8.539   8.033   6.082   8.012   8.720
    7.901   7.615   6.873   5.792   8.127
    8.098   7.683   8.047   6.891   6.912

    0.600   6.024
    8.002   8.223   7.302   7.084   8.277
    7.468   7.547   7.281   7.417   8.773
    8.680   7.650   6.024   7.778   8.603
    7.825   7.395   6.887   6.135   8.020
    8.020   7.780   8.146   6.693   6.943

    0.650   5.760
    8.194   8.249   6.875   7.067   8.252
    7.539   7.620   7.137   7.222   8.919
    8.825   7.899   5.760   7.570   8.671
    7.824   7.372   6.889   6.174   7.879
    8.097   7.830   8.116   7.174   6.940

    0.700   5.750
    8.380   8.394   7.199   6.796   8.036
    7.387   7.866   7.539   7.457   8.908
    8.538   8.275   5.750   7.718   8.726
    7.837   7.713   6.979   6.224   7.962
    8.172   8.147   7.730   6.892   6.566

    0.750   5.832
    8.379   8.461   7.229   6.569   7.673
    7.639   7.844   7.340   7.542   8.741
    8.665   8.199   5.832   7.932   8.994
    8.096   7.884   6.751   6.248   8.266
    8.146   8.164   7.657   6.632   6.525

    0.800   5.876
    8.201   8.143   7.234   6.471   7.972
    7.587   7.728   7.342   7.280   8.618
    9.076   7.977   5.876   8.111   8.846
    8.291   7.893   6.856   6.378   8.552
    8.324   8.339   7.539   6.481   6.612

    0.850   5.814
    8.118   7.734   7.193   6.319   7.678
    7.223   7.455   7.477   7.253   8.759
    8.914   8.166   5.814   8.054   8.999
    7.920   7.548   7.306   6.117   8.689
    8.746   8.478   7.477   6.516   6.798

    0.900   6.021
    8.075   7.907   7.100   6.615   7.941
    7.114   7.284   7.431   7.353   8.895
    8.909   8.019   6.021   8.267   8.909
    7.801   7.603   7.343   5.912   8.360
    8.112   8.551   7.214   6.520   7.021

    0.950   6.291
    8.255   7.716   6.812   6.681   7.731
    7.052   7.024   7.742   7.117   9.172
    8.721   8.199   6.291   7.665   8.795
    7.727   7.480   7.475   6.074   8.287
    7.899   8.494   7.179   6.920   6.935

    1.000   6.043
    8.418   7.706   6.934   6.950   7.839
    6.893   7.283   7.893   6.887   9.095
    8.746   8.456   6.043   7.769   8.720
    7.671   7.104   6.932   6.333   8.375
    7.978   8.126   7.555   6.925   6.949

    1.050   6.062
    8.425   8.102   6.972   6.912   7.853
    6.732   7.418   8.169   6.828   9.069
    8.679   8.469   6.062   7.663   8.658
    7.320   6.716   7.249   6.334   8.006
    7.921   7.976   7.684   7.060   6.597

    1.100   5.958
    8.667   8.520   7.015   6.843   7.765
    6.852   7.075   7.796   6.537   9.219
    8.386   8.477   5.958   7.345   8.753
    7.473   7.106   7.320   6.489   7.827
    7.598   8.016   7.283   6.874   6.547

    1.150   5.927
    9.135   8.433   7.123   6.904   7.538
    7.024   7.158   7.557   6.575   9.224
    8.622   8.517   5.927   7.058   8.488
    7.626   6.773   7.096   6.992   7.787
    7.530   8.042   7.197   6.898   6.594

    1.200   5.968
    9.314   8.125   7.007   6.792   7.675
    7.382   6.718   7.852   6.607   9.333
    8.945   8.339   5.968   6.935   8.547
    7.663   6.886   7.083   6.937   7.834
    7.375   8.260   6.851   6.835   6.652

    1.250   5.987
    9.241   8.153   6.951   6.969   7.800
    7.438   6.692   7.914   6.996   8.994
    8.984   8.476   5.987   7.084   8.376
    7.746   6.993   7.138   6.717   7.867
    7.261   7.878   7.037   6.929   6.460

    1.300   5.764
    9.320   7.931   7.106   7.061   7.630
    7.647   6.512   7.962   7.072   9.272
    8.905   8.099   5.764   7.328   8.480
    7.560   7.002   6.768   6.637   8.026
    7.197   7.924   6.933   6.788   6.703

    1.350   6.137
    9.394   7.922   7.416   7.019   7.574
    7.630   6.508   7.831   7.063   9.040
    8.853   8.178   6.137   7.150   9.042
    7.498   6.933   6.405   6.462   7.632
    7.783   8.096   6.988   6.664   7.120

    1.400   6.566
    9.652   8.121   7.396   6.934   7.531
    7.588   6.523   7.967   6.729   8.434
    8.876   8.460   6.566   7.203   9.481
    7.789   7.034   6.729   6.541   7.529
    7.303   7.884   7.056   6.670   6.561

    1.450   6.533
    9.359   8.083   7.335   7.120   7.513
    7.479   6.862   7.819   6.864   8.624
    8.952   8.672   6.533   7.104   9.342
    7.848   6.846   6.657   6.785   7.569
    7.555   7.697   6.792   6.703   6.717

    1.500   6.728
    9.374   7.877   7.585   7.165   7.587
    7.378   6.750   7.587   6.933   8.769
    8.877   8.429   6.728   7.099   9.464
    7.768   6.983   6.770   6.454   7.637
    7.498   7.537   6.768   6.477   7.051

    1.550   6.242
    9.241   8.223   7.571   7.312   7.839
    7.434   6.703   7.458   6.895   8.966
    8.596   8.209   6.242   7.060   9.262
    7.918   6.860   6.641   6.612   7.639
    7.590   7.721   6.899   6.282   7.292

    1.600   6.084
    9.254   8.262   7.745   7.528   7.949
    7.453   6.421   7.769   7.003   8.891
    9.054   8.640   6.084   7.131   9.042
    8.324   6.568   6.985   6.767   7.692
    7.519   7.980   6.981   6.357   7.203

    1.650   6.117
    9.397   8.577   7.968   7.558   7.903
    7.479   6.778   7.668   7.018   8.907
    9.118   8.601   6.117   7.130   8.807
    8.322   6.755   7.259   6.862   7.632
    7.044   7.791   6.822   6.221   7.251

    1.700   6.118
    9.527   8.330   7.938   7.159   7.944
    7.691   7.053   7.652   6.787   8.798
    9.184   8.501   6.118   7.243   8.999
    8.432   7.084   7.376   6.713   7.645
    7.043   7.792   6.422   6.052   7.173

    1.750   6.217
    9.446   8.667   8.073   7.059   7.807
    7.418   7.393   7.489   6.751   8.583
    9.058   8.669   6.217   7.143   8.721
    8.483   6.878   7.741   6.319   7.731
    6.915   7.642   6.248   5.997   7.246

    1.800   6.428
    9.753   8.627   7.684   7.024   8.129
    6.966   7.598   7.122   6.735   8.575
    8.928   8.786   6.428   7.184   8.912
    8.708   6.739   7.488   6.624   7.989
    6.816   7.746   6.234   6.418   7.181

    1.850   6.331
    9.603   8.657   7.550   7.286   8.215
    7.524   7.592   7.324   6.373   8.787
    8.920   8.567   6.331   7.136   9.124
    8.751   6.846   7.661   6.567   8.288
    6.905   7.621   6.392   6.627   7.470

    1.900   6.395
    9.506   8.885   7.652   7.230   8.024
    7.633   7.751   7.521   6.456   8.849
    9.132   8.147   6.395   6.809   8.865
    8.945   7.029   7.229   6.667   8.095
    6.848   7.579   6.557   6.624   7.630

    1.950   6.575
    9.495   9.128   7.309   7.481   7.902
    7.826   8.007   7.542   6.422   8.838
    8.913   8.158   6.575   7.031   8.658
    8.753   7.095   7.376   7.049   7.921
    7.227   7.860   6.449   6.726   7.889

    2.000   6.660
    9.011   9.054   7.232   7.640   7.755
    7.683   7.981   7.280   6.440   8.824
    8.888   7.962   6.660   6.802   8.571
    8.788   7.195   7.127   6.925   7.687
    7.051   7.935   6.227   6.479   7.830

    2.050   6.832
    9.099   9.256   7.272   7.398   7.667
    7.708   7.858   7.472   6.791   9.210
    8.836   8.132   6.832   6.496   8.489
    8.849   7.462   7.421   6.954   7.699
    6.977   7.963   6.548   5.978   7.982

    2.100   7.107
    9.676   9.362   7.372   7.005   7.578
    7.869   7.624   7.709   6.781   9.217
    8.868   8.427   7.107   6.327   8.323
    8.610   7.395   7.294   6.840   8.141
    6.507   8.418   7.042   6.318   7.794

    2.150   7.150
    9.649   9.078   7.826   7.018   7.780
    7.869   7.550   7.372   7.207   9.205
    8.950   8.578   7.150   6.486   8.156
    8.495   7.415   7.224   7.060   8.457
    6.750   8.265   6.736   6.349   7.692

    2.200   6.995
    9.454   9.045   7.623   7.465   7.951
    7.960   7.440   7.395   7.382   8.940
    9.207   8.502   6.995   6.368   8.145
    8.962   7.354   7.278   6.959   8.352
    7.240   8.296   6.711   6.001   7.378

    2.250   6.999
    9.850   8.921   7.442   7.598   7.739
    7.900   7.244   7.139   7.324   9.050
    9.457   8.879   6.999   6.453   8.361
    8.939   7.517   7.112   6.876   8.743
    7.682   8.180   6.370   5.725   7.123

    2.300   6.730
    9.790   8.772   7.554   7.603   7.432
    8.001   7.425   7.277   7.452   8.757
    9.401   9.129   6.730   6.416   8.124
    8.914   7.776   6.698   6.806   9.234
    7.740   7.881   6.052   5.491   7.421

    2.350   6.673
    9.872   8.689   7.811   7.849   7.349
    8.517   7.296   7.239   7.196   8.918
    9.418   9.010   6.673   6.659   7.790
    8.687   7.618   6.656   6.831   9.164
    7.867   7.512   6.324   5.720   7.636

    2.400   6.913
    9.607   9.045   7.909   7.940   7.710
    8.587   7.190   7.080   7.628   8.655
    9.328   9.023   6.913   6.807   8.242
    8.623   7.632   7.193   6.799   9.044
    8.301   7.392   6.394   5.653   7.749

    2.450   7.061
    9.526   9.059   7.639   7.900   7.823
    8.599   7.506   7.196   7.073   8.687
    9.086   9.105   7.061   6.663   7.784
    8.781   7.456   7.106   6.819   9.054
    8.350   6.966   6.095   5.736   7.650

    2.500   6.828
    9.873   8.890   7.460   7.896   7.843
    8.313   7.485   7.490   7.201   8.573
    9.203   8.959   6.828   6.858   7.442
    8.784   7.565   7.203   6.732   9.050
    8.666   7.011   6.207   5.970   7.634

    2.550   6.960
   10.080   8.578   7.512   7.724   8.004
    8.213   7.347   7.502   7.449   8.490
    9.302   8.907   6.960   7.265   7.553
    8.554   7.563   7.121   6.838   8.998
    8.871   6.974   6.307   5.534   7.266

    2.600   7.019
    9.920   8.797   7.133   7.759   7.954
    8.414   7.605   7.422   7.342   8.465
    9.258   9.269   7.019   7.464   7.558
    8.602   7.608   6.938   6.627   8.902
    8.811   6.964   6.349   5.152   6.800

    2.650   7.073
    9.662   9.031   6.588   7.590   8.047
    8.494   7.859   7.056   7.537   8.453
    9.728   9.274   7.073   7.164   7.539
    8.752   7.683   6.899   6.490   8.711
    8.934   7.022   6.115   5.025   6.919

    2.700   7.040
    9.787   9.238   6.485   7.791   8.171
    8.449   8.096   6.875   7.250   8.705
    9.790   9.086   7.040   7.085   7.745
    9.317   7.819   6.950   6.681   9.019
    8.792   7.233   6.297   5.393   6.802

    2.750   6.912
    9.950   9.526   7.016   7.594   7.956
    8.537   8.174   7.084   7.179   8.849
    9.443   8.845   6.912   7.193   7.771
    9.249   7.622   6.753   6.819   9.140
    8.627   7.255   6.750   5.436   6.829

    2.800   6.755
    9.787   9.686   7.287   7.427   8.113
    8.540   8.037   7.156   6.724   8.867
    9.116   8.738   6.755   7.306   7.945
    8.975   7.517   6.479   6.951   9.320
    8.719   7.124   6.850   5.447   6.999

    2.850   6.818
    9.706   9.541   7.213   7.293   7.902
    9.114   8.171   6.896   6.412   9.061
    9.191   8.502   6.818   7.345   8.100
    8.825   7.347   6.346   7.063   9.112
    8.509   6.990   6.885   5.408   6.864

    2.900   6.797
    9.799   9.762   7.209   7.509   7.875
    8.733   8.161   6.816   6.422   9.135
    8.967   8.322   6.797   7.537   8.034
    8.776   7.192   6.883   6.849   9.041
    8.487   7.093   6.812   5.516   6.988

    2.950   6.790
    9.912   9.633   7.289   7.428   7.921
    8.992   8.073   6.766   6.497   9.039
    9.166   8.590   6.790   7.706   7.620
    8.784   7.553   6.833   7.000   8.988
    8.490   7.407   6.948   5.634   7.193

    3.000   6.926
    9.406   9.496   7.157   7.095   8.169
    9.110   8.069   6.533   6.228   8.886
    9.588   8.584   6.926   7.673   7.688
    8.549   7.492   7.189   6.890   9.017
    8.538   7.636   7.149   5.250   6.800

    3.050   6.712
    9.488   9.263   7.300   6.856   8.045
    9.321   7.897   6.871   6.430   9.252
    9.527   8.795   6.712   7.535   7.325
    8.622   7.341   6.930   6.597   8.807
    8.710   7.585   6.667   5.401   6.487

    3.100   6.764
    9.873   9.326   7.588   6.772   8.441
    9.566   8.065   6.861   6.524   9.325
    9.076   8.999   6.764   7.740   7.335
    8.428   7.456   6.990   6.664   8.145
    8.858   7.503   6.738   5.215   6.360

    3.150   6.943
   10.453   8.965   7.562   6.511   8.104
    9.519   7.946   7.075   6.184   9.152
    9.284   8.932   6.943   7.672   7.397
    8.727   7.416   7.274   6.523   8.159
    8.574   7.565   6.777   5.363   6.478

    3.200   6.934
   10.287   9.111   7.643   6.909   7.961
    9.339   7.992   7.016   6.383   9.180
    9.183   8.701   6.934   7.251   7.398
    8.529   7.296   7.559   6.717   8.602
    8.783   7.507   6.779   5.597   6.648

    3.250   6.964
   10.179   8.730   7.808   6.993   8.083
    9.116   7.858   6.842   6.133   8.866
    9.254   8.477   6.964   7.007   7.689
    8.691   7.570   7.570   7.030   8.444
    8.490   7.449   6.827   5.567   6.886

    3.300   6.748
    9.956   8.332   7.784   6.924   8.560
    9.397   8.099   6.552   6.085   8.693
    9.518   8.792   6.748   7.303   7.956
    8.808   7.985   7.803   7.132   8.644
    8.698   7.516   6.935   5.996   7.037

    3.350   6.858
   10.036   8.645   7.597   6.885   8.844
    9.057   7.995   6.691   6.617   8.754
    9.845   8.823   6.858   6.995   7.630
    9.042   7.812   7.671   7.246   8.384
    8.853   7.752   6.843   6.456   7.078

    3.400   6.857
    9.983   8.713   7.466   6.912   8.620
    9.042   8.025   7.248   6.626   8.617
   10.298   9.231   6.857   7.138   7.393
    8.915   7.840   7.705   7.102   8.617
    8.830   7.577   6.611   6.450   6.894

    3.450   6.901
   10.022   8.489   7.655   7.035   8.637
    8.948   8.247   7.557   6.820   8.146
   10.208   9.303   6.901   7.228   7.332
    9.125   8.094   7.767   7.377   8.542
    8.909   7.676   6.492   6.185   6.910

    3.500   6.633
   10.097   8.535   7.775   6.875   8.723
    9.092   8.267   7.561   6.581   8.262
   10.163   9.355   6.633   7.329   7.333
    9.174   7.991   7.578   7.484   8.537
    9.019   7.526   6.629   6.154   6.974

    3.550   6.773
    9.941   8.332   7.689   7.013   8.812
    9.183   8.447   7.545   6.951   8.603
   10.283   9.210   6.773   7.287   7.728
    8.968   8.389   7.580   7.373   8.676
    8.721   7.576   6.379   6.485   7.142

    3.600   6.717
    9.832   8.512   7.677   6.994   8.440
    9.444   8.253   7.698   7.019   8.361
   10.310   9.436   6.717   7.562   7.542
    8.920   8.456   7.995   7.197   9.027
    8.635   7.686   6.536   6.415   7.246

    3.650   6.304
    9.675   8.617   7.560   6.880   8.295
    9.650   8.014   7.477   7.187   8.022
   10.358   9.233   6.304   7.586   7.495
    8.602   8.282   7.974   6.846   8.978
    8.660   8.177   6.883   6.412   6.904

    3.700   6.390
    9.793   8.664   7.322   7.172   8.072
    9.127   8.202   7.526   6.880   7.899
   10.381   9.345   6.390   7.886   7.299
    8.691   8.246   8.019   6.906   8.863
    8.815   8.306   7.048   6.498   6.691

    3.750   6.436
    9.825   8.887   7.196   7.794   8.301
    9.237   8.482   7.297   6.827   7.862
   10.098   9.634   6.436   7.567   7.427
    8.773   8.321   8.241   7.213   8.693
    8.694   8.448   7.249   6.505   7.160

    3.800   6.170
    9.824   8.682   7.389   7.866   8.761
    9.295   8.605   7.220   6.945   8.021
   10.016   9.372   6.170   7.350   7.332
    8.501   8.831   7.825   7.398   8.784
    8.888   8.252   7.346   6.305   7.184

    3.850   6.237
    9.824   8.766   7.146   7.349   8.718
    9.154   8.831   7.052   6.816   7.852
   10.131   9.666   6.237   7.229   7.216
    8.511   8.820   7.857   6.988   9.057
    8.897   8.274   7.142   6.172   7.314

    3.900   6.341
    9.897   8.754   7.383   7.373   8.665
    8.746   8.594   7.057   6.655   7.893
   10.251   9.627   6.341   7.262   7.140
    8.444   8.952   8.103   6.913   8.846
    9.052   8.330   7.175   6.106   7.217

    3.950   6.576
   10.324   8.952   7.263   7.812   8.369
    8.708   8.523   7.548   6.932   8.116
   10.232   9.619   6.576   7.737   6.879
    8.319   8.836   8.168   7.084   8.543
    9.003   8.309   7.178   6.576   7.382

    4.000   6.561
   10.455   8.807   7.228   8.054   8.630
    8.365   8.563   7.536   6.819   8.111
    9.923   9.457   6.561   7.669   6.600
    8.405   9.053   8.290   7.012   8.685
    9.225   8.371   7.297   6.752   7.330

    4.050   6.603
   10.132   8.453   7.078   7.574   8.799
    8.510   8.293   7.758   7.122   7.925
    9.985   9.606   6.603   7.730   6.588
    8.857   9.264   8.126   7.129   8.727
    9.232   8.594   7.535   6.777   7.762

    4.100   6.673
   10.168   8.633   6.918   7.251   8.314
    8.809   8.391   7.937   7.171   8.015
    9.992   9.817   6.673   7.371   6.708
    8.524   9.258   8.278   7.349   8.413
    9.282   8.420   7.827   6.627   7.889

    4.150   7.108
   10.296   8.891   6.946   7.274   8.330
    8.891   8.170   7.858   6.888   7.939
   10.188   9.465   7.108   7.407   6.963
    8.121   9.438   8.423   7.548   8.357
    9.239   8.059   7.548   6.938   7.898

    4.200   7.610
   10.211   8.759   7.324   7.430   8.679
    9.124   8.350   7.460   7.344   7.881
   10.482   9.556   7.610   7.339   7.177
    8.219   9.721   8.358   7.178   7.807
    9.457   7.889   7.855   6.962   7.752

    4.250   7.557
   10.319   8.862   7.151   7.912   8.479
    9.263   8.287   7.220   7.124   8.332
   10.830   9.483   7.557   7.160   7.150
    8.673   9.706   8.181   7.390   7.812
    9.333   8.021   7.508   6.997   7.579

    4.300   7.819
   10.062   8.924   6.936   8.077   8.221
    9.439   8.555   7.369   6.982   8.263
   10.984   9.544   7.819   6.725   7.093
    8.933   9.695   8.386   7.647   7.560
    9.366   7.878   7.192   6.755   7.795

    4.350   8.119
   10.188   9.178   7.271   8.046   8.544
    9.493   8.550   7.178   7.034   7.991
   10.838   9.316   8.119   6.677   6.903
    8.407   9.940   8.694   7.370   7.396
    9.052   8.205   7.259   6.766   7.482

    4.400   7.984
   10.055   9.348   7.274   7.967   8.379
    9.487   8.853   7.273   6.958   8.117
   11.024   9.452   7.984   6.973   7.009
    8.253   9.699   8.666   7.072   7.345
    8.924   8.155   7.483   6.891   7.366

    4.450   8.519
    9.826   9.301   7.419   7.931   8.473
    9.114   8.795   7.133   6.822   8.464
   11.362   9.871   8.519   7.270   7.642
    8.242   9.616   8.593   7.366   7.416
    9.093   7.896   7.451   6.969   7.553

    4.500   8.513
   10.016   9.481   7.875   8.107   8.028
    9.405   8.778   7.455   7.073   8.407
   11.180   9.855   8.513   7.109   7.323
    8.306   9.609   8.429   7.287   7.804
    9.236   7.778   7.428   6.852   7.408

    4.550   8.159
    9.874   9.346   7.843   8.223   8.140
    9.139   8.589   7.561   7.520   8.354
   10.603   9.574   8.159   7.064   7.203
    8.465   9.295   7.981   7.465   7.765
    9.084   7.736   7.362   6.767   7.272

    4.600   7.912
    9.632   9.278   7.759   8.456   8.277
    8.937   8.694   7.662   7.218   8.505
   10.580   9.624   7.912   6.831   7.430
    8.517   9.522   8.189   7.687   7.990
    9.200   7.865   7.580   6.818   7.355

    4.650   7.491
    9.973   8.683   7.444   8.237   8.406
    9.261   8.807   7.945   7.098   8.522
   10.875   9.521   7.491   7.006   7.302
    8.739   9.330   7.833   7.643   7.866
    9.222   7.620   7.506   6.496   7.577

    4.700   7.302
   10.061   8.544   7.487   8.085   8.289
    9.384   8.685   7.495   7.285   8.437
   11.109   9.384   7.302   7.029   7.384
    8.783   9.129   7.860   7.802   7.845
    9.154   7.436   7.596   6.558   7.625

    4.750   7.599
    9.817   8.372   7.545   8.031   8.149
    9.311   8.496   7.552   7.344   8.366
   11.315   9.572   7.599   7.139   7.460
    9.092   9.041   7.709   7.571   7.769
    9.030   7.267   7.566   6.716   7.642

    4.800   7.605
    9.681   8.507   7.521   8.356   8.031
    9.610   8.859   7.481   7.331   8.192
   11.418   9.345   7.605   7.789   7.267
    9.304   9.240   7.605   7.743   7.845
    8.938   7.104   7.864   6.644   7.580

    4.850   7.611
    9.731   8.462   7.596   8.290   8.134
    9.443   8.730   7.176   7.184   8.142
   11.543   9.719   7.611   7.889   7.260
    9.022   8.998   7.303   7.752   7.768
    9.006   6.940   7.609   6.490   8.067

    4.900   7.509
   10.003   8.574   7.728   8.208   8.134
    8.937   8.604   7.145   7.277   8.038
   11.421   9.385   7.509   7.669   7.168
    9.183   8.642   7.241   7.418   7.593
    9.083   6.953   7.430   6.718   8.242

    4.950   7.528
   10.055   8.921   7.608   8.278   8.430
    8.844   8.597   7.009   7.260   7.778
   11.438   9.520   7.528   7.539   7.160
    9.251   8.464   7.385   7.249   7.614
    8.894   7.481   7.447   6.594   8.316

    5.000   7.499
    9.772   8.723   7.406   8.636   8.121
    8.776   8.760   7.069   7.474   7.771
   11.344   9.670   7.499   7.390   6.985
    9.186   8.510   7.318   7.192   7.339
    8.745   7.250   7.578   6.224   8.292

    5.050   7.766
    9.533   8.816   7.299   8.541   7.988
    8.771   8.685   7.396   8.007   7.843
   11.107   9.620   7.766   7.621   7.184
    9.015   8.304   7.501   7.355   7.362
    8.794   7.195   7.525   6.566   8.337

    5.100   7.325
    9.399   8.733   7.893   8.417   7.819
    8.637   8.737   7.687   7.994   7.999
   11.244   9.858   7.325   7.573   7.209
    9.302   8.793   7.480   7.559   7.346
    9.162   7.266   7.522   6.596   8.393

    5.150   7.316
    9.544   9.127   8.042   8.615   7.866
    8.926   8.625   8.001   8.321   8.330
   11.447   9.817   7.316   7.860   7.138
    9.106   8.828   7.392   7.610   7.281
    9.333   6.761   7.527   6.758   8.264

    5.200   7.316
    9.443   8.598   8.311   8.456   7.836
    9.204   8.853   8.076   8.299   8.393
   11.262   9.654   7.316   7.895   7.074
    9.016   9.231   7.425   7.835   7.482
    9.395   6.856   7.936   7.144   8.218

    5.250   7.241
    9.391   8.766   8.230   8.607   7.744
    9.211   8.700   8.335   8.239   8.420
   11.228   9.969   7.241   7.880   6.994
    9.248   8.707   7.294   7.794   7.757
    9.706   7.015   7.846   6.984   8.240

    5.300   7.286
    9.678   8.785   8.594   8.885   8.001
    9.608   8.430   8.487   8.350   8.276
   11.120   9.958   7.286   7.765   7.036
    9.110   8.340   7.280   7.781   7.757
    9.304   7.087   7.956   7.253   8.266

    5.350   7.421
    9.943   8.544   8.671   8.658   7.749
    9.517   8.424   8.626   8.118   8.547
   10.513   9.894   7.421   7.743   7.375
    9.344   8.609   7.323   7.811   7.717
    9.477   6.940   8.102   6.862   8.089

    5.400   7.615
   10.313   8.465   8.751   8.600   7.306
    9.676   8.320   9.014   7.954   8.818
   10.433   9.933   7.615   7.670   7.409
    9.399   8.220   6.880   8.053   7.708
    9.478   6.941   7.795   6.847   7.975

    5.450   7.749
    9.921   8.950   8.645   8.328   7.326
    9.840   8.626   8.858   8.099   8.545
   10.420   9.603   7.749   7.939   7.436
    9.420   8.164   6.962   7.881   7.356
    9.867   6.818   7.710   7.060   7.644

    5.500   7.620
    9.862   8.874   8.411   7.957   7.346
    9.613   8.430   9.008   8.325   8.708
   10.462   9.717   7.620   7.783   7.528
    9.332   7.657   7.316   7.941   7.268
    9.752   6.584   7.601   7.376   7.389

    5.550   7.704
    9.746   9.009   8.569   7.741   7.456
    9.474   8.314   9.250   8.776   8.531
   10.133   9.306   7.704   7.697   7.663
    9.110   7.478   7.435   8.294   7.539
    9.780   6.579   7.404   7.460   6.993

    5.600   7.643
    9.894   9.603   8.541   8.265   7.592
    9.427   8.276   9.157   8.596   8.311
    9.943   9.467   7.643   7.799   8.039
    9.300   7.530   7.535   8.448   7.317
    9.781   6.422   7.395   7.440   6.960

    5.650   7.582
    9.983   9.247   9.028   8.564   7.955
    9.229   7.842   9.153   8.829   8.492
   10.049   9.521   7.582   7.774   7.975
    9.064   7.130   7.570   8.338   7.630
    9.618   6.207   7.709   7.644   6.594

    5.700   7.745
   10.028   9.072   8.811   8.723   8.051
    9.041   7.664   9.544   8.715   7.975
   10.468   9.537   7.745   8.091   7.983
    8.907   6.790   7.333   8.344   7.452
    9.467   6.494   7.398   7.546   6.490

    5.750   7.551
    9.774   9.063   8.622   8.513   8.134
    9.078   7.963   9.487   8.433   7.829
   10.298   9.253   7.551   7.856   7.997
    8.811   6.775   7.439   8.281   7.582
    9.326   6.538   7.328   7.778   6.289

    5.800   7.502
    9.736   9.016   8.656   8.555   8.380
    9.134   8.417   9.394   8.395   7.514
   10.400   9.402   7.502   7.866   7.898
    8.682   7.138   7.533   8.318   7.351
    9.061   6.544   7.148   7.516   6.188

    5.850   7.896
    9.727   9.219   9.055   8.580   8.356
    9.325   8.329   9.072   8.505   7.457
   10.217   9.676   7.896   7.780   7.807
    8.599   7.055   7.221   8.503   7.109
    8.992   6.610   7.330   7.565   6.662

    5.900   7.640
    9.564   9.314   9.199   8.465   8.399
    9.177   8.328   9.070   8.723   7.921
   10.162   9.349   7.640   7.487   7.896
    8.529   7.195   7.286   8.569   7.192
    8.881   6.312   7.409   7.754   6.945

    5.950   7.754
    9.044   9.668   9.282   8.457   8.678
    8.922   8.575   8.472   8.903   8.479
   10.404   9.189   7.754   7.736   7.780
    8.138   7.136   7.022   8.572   7.287
    8.697   6.721   7.443   7.438   7.103

    6.000   7.948
    9.468   9.627   9.315   8.587   9.042
    8.996   8.160   8.592   8.780   8.557
   10.382   9.010   7.948   7.927   7.762
    8.323   7.275   6.870   8.843   7.639
    8.413   6.638   7.664   7.510   7.205

    6.050   7.986
    9.772   9.542   9.304   8.649   8.890
    9.246   8.159   8.454   8.629   8.358
   10.189   8.948   7.986   8.133   7.667
    8.728   7.282   7.012   8.635   7.522
    8.275   7.301   7.689   7.806   7.336

    6.100   7.738
    9.669   9.607   9.392   8.950   8.819
    9.354   8.014   8.545   8.401   8.825
   10.269   8.712   7.738   8.611   7.451
    8.771   7.635   7.095   8.464   7.499
    7.847   7.007   7.574   7.819   7.110

    6.150   7.912
   10.160   9.817   9.114   8.952   8.618
    9.513   8.172   8.474   8.270   8.579
   10.433   8.410   7.912   8.779   7.367
    9.102   7.995   7.565   8.433   7.605
    7.856   7.056   7.594   7.629   6.944

    6.200   8.544
   10.215   9.759   8.978   9.099   8.628
    9.569   8.394   8.540   8.452   8.798
   10.236   8.250   8.544   8.388   7.272
    9.154   7.895   7.455   8.356   7.595
    7.752   7.228   7.749   7.378   6.836

    6.250   8.635
   10.051   9.700   9.101   9.010   8.702
    9.398   8.277   8.998   8.749   8.519
   10.058   8.124   8.635   8.366   7.333
    8.968   7.947   6.955   8.379   7.446
    7.857   7.432   7.523   7.823   6.790

    6.300   8.399
    9.982   9.301   8.850   9.082   8.516
    9.578   8.219   8.894   8.791   8.517
   10.185   7.883   8.399   7.981   7.413
    8.947   8.034   7.450   8.511   7.615
    7.820   7.790   7.288   7.953   6.612

    6.350   8.878
   10.064   9.338   9.046   9.392   8.300
    9.267   7.970   9.135   8.813   8.575
   10.193   7.983   8.878   8.119   7.376
    8.756   8.010   7.157   8.783   7.816
    7.621   7.565   7.375   8.010   7.061

    6.400   8.711
   10.164   9.130   9.078   9.374   8.340
    9.356   7.846   9.267   8.927   9.052
    9.979   8.215   8.711   7.935   7.386
    8.796   7.738   7.311   8.443   7.755
    7.576   7.230   7.237   8.029   7.079

    6.450   8.595
    9.914   9.420   9.123   9.384   8.626